/*---------------------------------------------------------------------------*\
  =========                 |
  \\      /  F ield         | OpenFOAM: The Open Source CFD Toolbox
   \\    /   O peration     | Website:  https://openfoam.org
    \\  /    A nd           | Version:  12
     \\/     M anipulation  |
\*---------------------------------------------------------------------------*/
Build  : 12-8b1612fe08a0
Exec   : foamRun
Date   : Sep 10 2024
Time   : 16:45:00
Host   : "DESKTOP-HK6CJNO"
PID    : 225124
I/O    : uncollated
Case   : /home/weizhe/OpenFOAM/weizhe-12/run/ahmed/results/1e-05_100_kOmegaSST
nProcs : 1
sigFpe : Enabling floating point exception trapping (FOAM_SIGFPE).
fileModificationChecking : Monitoring run-time modified files using timeStampMaster (fileModificationSkew 10)
allowSystemOperations : Allowing user-supplied system call operations

// * * * * * * * * * * * * * * * * * * * * * * * * * * * * * * * * * * * * * //
Create time

Create mesh for time = 3

Selecting solver incompressibleFluid
Selecting viscosity model constant
Selecting turbulence model type RAS
Selecting RAS turbulence model kOmegaSST
RAS
{
    model           kOmegaSST;
    turbulence      on;
    printCoeffs     on;
    alphaK1         0.85;
    alphaK2         1;
    alphaOmega1     0.5;
    alphaOmega2     0.856;
    gamma1          0.555556;
    gamma2          0.44;
    beta1           0.075;
    beta2           0.0828;
    betaStar        0.09;
    a1              0.31;
    b1              1;
    c1              10;
    F3              false;
}

No MRF models present

Selecting patchDistMethod meshWave

SIMPLE: No convergence criteria found


SIMPLE: Operating solver in steady-state mode with 1 outer corrector
SIMPLE: Operating solver in SIMPLE mode



Starting time loop

Reading surface description:
    yNormal

streamlines streamlines:
    automatic track length specified through number of sub cycles : 5

forcesBase forces:
    Not including porosity effects
forces forces:
    Not including porosity effects
forceCoeffs forces:
    Not including porosity effects
streamlines streamlines write:
    Seeded 20 particles
    Sampled 6040 locations
forceCoeffs forces write:
    Cm    = 0.00927347
    Cd    = 0.0564307
    Cl    = 0.000373805
    Cl(f) = 0.00946037
    Cl(r) = -0.00908657

Time = 4s

DILUPBiCGStab:  Solving for Ux, Initial residual = 1, Final residual = 2.87084e-09, No Iterations 6
DILUPBiCGStab:  Solving for Uy, Initial residual = 1, Final residual = 9.91235e-09, No Iterations 5
DILUPBiCGStab:  Solving for Uz, Initial residual = 1, Final residual = 7.29769e-10, No Iterations 5
GAMG:  Solving for p, Initial residual = 1, Final residual = 0.0927788, No Iterations 7
time step continuity errors : sum local = 0.0840541, global = -0.0561912, cumulative = -0.0561912
DILUPBiCGStab:  Solving for omega, Initial residual = 0.967997, Final residual = 2.19579e-09, No Iterations 49
DILUPBiCGStab:  Solving for k, Initial residual = 1, Final residual = 2.95937e-09, No Iterations 60
ExecutionTime = 12.7918 s  ClockTime = 12 s

forceCoeffs forces write:
    Cm    = 11.0352
    Cd    = 44.2718
    Cl    = 9.93621
    Cl(f) = 16.0033
    Cl(r) = -6.06712

Time = 5s

DILUPBiCGStab:  Solving for Ux, Initial residual = 0.313014, Final residual = 2.10555e-10, No Iterations 5
DILUPBiCGStab:  Solving for Uy, Initial residual = 0.382849, Final residual = 1.37176e-09, No Iterations 4
DILUPBiCGStab:  Solving for Uz, Initial residual = 0.39721, Final residual = 9.30838e-09, No Iterations 4
GAMG:  Solving for p, Initial residual = 0.938473, Final residual = 0.0884849, No Iterations 1
time step continuity errors : sum local = 0.539861, global = -0.000974924, cumulative = -0.0571661
DILUPBiCGStab:  Solving for omega, Initial residual = 0.610807, Final residual = 4.82847e-10, No Iterations 64
DILUPBiCGStab:  Solving for k, Initial residual = 0.626707, Final residual = 5.83521e-09, No Iterations 34
ExecutionTime = 18.2886 s  ClockTime = 18 s

forceCoeffs forces write:
    Cm    = 11.2393
    Cd    = 45.9816
    Cl    = 11.6814
    Cl(f) = 17.08
    Cl(r) = -5.39866

Time = 6s

DILUPBiCGStab:  Solving for Ux, Initial residual = 0.155015, Final residual = 4.16853e-09, No Iterations 5
DILUPBiCGStab:  Solving for Uy, Initial residual = 0.268407, Final residual = 8.48402e-09, No Iterations 4
DILUPBiCGStab:  Solving for Uz, Initial residual = 0.26599, Final residual = 1.77453e-09, No Iterations 5
GAMG:  Solving for p, Initial residual = 0.951991, Final residual = 0.0950696, No Iterations 13
time step continuity errors : sum local = 4.6258, global = -3.28886, cumulative = -3.34603
DILUPBiCGStab:  Solving for omega, Initial residual = 0.233191, Final residual = 9.89619e-09, No Iterations 49
DILUPBiCGStab:  Solving for k, Initial residual = 0.62639, Final residual = 2.45013e-09, No Iterations 47
ExecutionTime = 24.902 s  ClockTime = 24 s

forceCoeffs forces write:
    Cm    = -39.4723
    Cd    = -217.564
    Cl    = 7.1041
    Cl(f) = -35.9203
    Cl(r) = 43.0244

Time = 7s

DILUPBiCGStab:  Solving for Ux, Initial residual = 0.300768, Final residual = 2.52069e-09, No Iterations 4
DILUPBiCGStab:  Solving for Uy, Initial residual = 0.317774, Final residual = 2.24945e-09, No Iterations 4
DILUPBiCGStab:  Solving for Uz, Initial residual = 0.346425, Final residual = 1.8129e-09, No Iterations 4
GAMG:  Solving for p, Initial residual = 0.714471, Final residual = 0.056192, No Iterations 5
time step continuity errors : sum local = 3.78529, global = 0.119377, cumulative = -3.22665
DILUPBiCGStab:  Solving for omega, Initial residual = 0.639138, Final residual = 9.5261e-09, No Iterations 45
DILUPBiCGStab:  Solving for k, Initial residual = 0.505521, Final residual = 9.49559e-09, No Iterations 23
bounding k, min: -0.000448204 max: 39.4079 average: 0.248915
ExecutionTime = 29.5975 s  ClockTime = 29 s

forceCoeffs forces write:
    Cm    = -19212.4
    Cd    = -101042
    Cl    = -573.339
    Cl(f) = -19499
    Cl(r) = 18925.7

Time = 8s

DILUPBiCGStab:  Solving for Ux, Initial residual = 0.326836, Final residual = 2.05441e-09, No Iterations 4
DILUPBiCGStab:  Solving for Uy, Initial residual = 0.205334, Final residual = 6.44287e-10, No Iterations 4
DILUPBiCGStab:  Solving for Uz, Initial residual = 0.250363, Final residual = 2.68097e-09, No Iterations 4
GAMG:  Solving for p, Initial residual = 0.0228373, Final residual = 0.00210508, No Iterations 4
time step continuity errors : sum local = 4.53823, global = 0.219524, cumulative = -3.00712
DILUPBiCGStab:  Solving for omega, Initial residual = 0.791566, Final residual = 3.66917e-09, No Iterations 23
DILUPBiCGStab:  Solving for k, Initial residual = 0.558775, Final residual = 9.7967e-09, No Iterations 42
ExecutionTime = 34.0067 s  ClockTime = 34 s

forceCoeffs forces write:
    Cm    = -34582.3
    Cd    = -181425
    Cl    = -2362.03
    Cl(f) = -35763.3
    Cl(r) = 33401.3

Time = 9s

DILUPBiCGStab:  Solving for Ux, Initial residual = 0.315301, Final residual = 1.66281e-10, No Iterations 5
DILUPBiCGStab:  Solving for Uy, Initial residual = 0.242477, Final residual = 9.07247e-11, No Iterations 5
DILUPBiCGStab:  Solving for Uz, Initial residual = 0.25382, Final residual = 2.32365e-09, No Iterations 4
GAMG:  Solving for p, Initial residual = 0.0132008, Final residual = 0.0012289, No Iterations 4
time step continuity errors : sum local = 5.11692, global = 0.466905, cumulative = -2.54022
DILUPBiCGStab:  Solving for omega, Initial residual = 0.362189, Final residual = 9.98688e-09, No Iterations 50
DILUPBiCGStab:  Solving for k, Initial residual = 0.568161, Final residual = 8.81102e-09, No Iterations 16
ExecutionTime = 38.4484 s  ClockTime = 38 s

forceCoeffs forces write:
    Cm    = -27122.1
    Cd    = -138881
    Cl    = -3064.03
    Cl(f) = -28654.1
    Cl(r) = 25590.1

Time = 10s

DILUPBiCGStab:  Solving for Ux, Initial residual = 0.25106, Final residual = 2.54233e-10, No Iterations 5
DILUPBiCGStab:  Solving for Uy, Initial residual = 0.192461, Final residual = 3.40974e-09, No Iterations 4
DILUPBiCGStab:  Solving for Uz, Initial residual = 0.195327, Final residual = 8.82297e-09, No Iterations 4
GAMG:  Solving for p, Initial residual = 0.0182935, Final residual = 0.00172266, No Iterations 3
time step continuity errors : sum local = 6.47961, global = 0.724356, cumulative = -1.81586
DILUPBiCGStab:  Solving for omega, Initial residual = 0.771548, Final residual = 9.9431e-09, No Iterations 15
DILUPBiCGStab:  Solving for k, Initial residual = 0.524326, Final residual = 8.98196e-09, No Iterations 41
ExecutionTime = 42.4579 s  ClockTime = 42 s

forceCoeffs forces write:
    Cm    = -11809.2
    Cd    = -55865.6
    Cl    = -2713.48
    Cl(f) = -13165.9
    Cl(r) = 10452.4

Time = 11s

DILUPBiCGStab:  Solving for Ux, Initial residual = 0.200263, Final residual = 9.51065e-09, No Iterations 4
DILUPBiCGStab:  Solving for Uy, Initial residual = 0.143203, Final residual = 5.33369e-09, No Iterations 4
DILUPBiCGStab:  Solving for Uz, Initial residual = 0.134742, Final residual = 5.48274e-09, No Iterations 4
GAMG:  Solving for p, Initial residual = 0.0453031, Final residual = 0.00445328, No Iterations 3
time step continuity errors : sum local = 7.78603, global = 1.11882, cumulative = -0.697041
DILUPBiCGStab:  Solving for omega, Initial residual = 0.307008, Final residual = 9.17814e-09, No Iterations 55
DILUPBiCGStab:  Solving for k, Initial residual = 0.52798, Final residual = 7.64542e-09, No Iterations 14
ExecutionTime = 46.9658 s  ClockTime = 47 s

forceCoeffs forces write:
    Cm    = 1061.71
    Cd    = 12271
    Cl    = -1941.57
    Cl(f) = 90.9242
    Cl(r) = -2032.5

Time = 12s

DILUPBiCGStab:  Solving for Ux, Initial residual = 0.180395, Final residual = 9.97797e-09, No Iterations 4
DILUPBiCGStab:  Solving for Uy, Initial residual = 0.164274, Final residual = 3.42665e-09, No Iterations 4
DILUPBiCGStab:  Solving for Uz, Initial residual = 0.15937, Final residual = 4.30324e-09, No Iterations 4
GAMG:  Solving for p, Initial residual = 0.29922, Final residual = 0.021945, No Iterations 3
time step continuity errors : sum local = 6.79833, global = 1.19456, cumulative = 0.497517
DILUPBiCGStab:  Solving for omega, Initial residual = 0.670261, Final residual = 5.95716e-09, No Iterations 12
DILUPBiCGStab:  Solving for k, Initial residual = 0.538868, Final residual = 6.7874e-09, No Iterations 39
ExecutionTime = 50.6438 s  ClockTime = 50 s

forceCoeffs forces write:
    Cm    = 7454.31
    Cd    = 44469.3
    Cl    = -1117.04
    Cl(f) = 6895.79
    Cl(r) = -8012.83

Time = 13s

DILUPBiCGStab:  Solving for Ux, Initial residual = 0.153635, Final residual = 2.42471e-09, No Iterations 4
DILUPBiCGStab:  Solving for Uy, Initial residual = 0.198401, Final residual = 8.02238e-09, No Iterations 4
DILUPBiCGStab:  Solving for Uz, Initial residual = 0.208734, Final residual = 7.44885e-09, No Iterations 4
GAMG:  Solving for p, Initial residual = 0.159032, Final residual = 0.0127837, No Iterations 3
time step continuity errors : sum local = 8.30757, global = 1.48404, cumulative = 1.98156
DILUPBiCGStab:  Solving for omega, Initial residual = 0.332802, Final residual = 1.24634e-09, No Iterations 57
DILUPBiCGStab:  Solving for k, Initial residual = 0.482576, Final residual = 8.16179e-09, No Iterations 13
bounding k, min: -1.07632 max: 67705.3 average: 74.0668
ExecutionTime = 55.395 s  ClockTime = 55 s

forceCoeffs forces write:
    Cm    = 7409.28
    Cd    = 41958.5
    Cl    = -469.21
    Cl(f) = 7174.67
    Cl(r) = -7643.88

Time = 14s

DILUPBiCGStab:  Solving for Ux, Initial residual = 0.138257, Final residual = 4.34701e-09, No Iterations 4
DILUPBiCGStab:  Solving for Uy, Initial residual = 0.210002, Final residual = 7.75161e-10, No Iterations 4
DILUPBiCGStab:  Solving for Uz, Initial residual = 0.223324, Final residual = 5.73381e-09, No Iterations 4
GAMG:  Solving for p, Initial residual = 0.184168, Final residual = 0.013728, No Iterations 3
time step continuity errors : sum local = 9.4574, global = 1.08341, cumulative = 3.06497
DILUPBiCGStab:  Solving for omega, Initial residual = 0.567217, Final residual = 9.18417e-09, No Iterations 12
DILUPBiCGStab:  Solving for k, Initial residual = 0.466401, Final residual = 4.11608e-09, No Iterations 40
ExecutionTime = 59.2532 s  ClockTime = 59 s

forceCoeffs forces write:
    Cm    = 4035.02
    Cd    = 21648.8
    Cl    = 118.042
    Cl(f) = 4094.04
    Cl(r) = -3976

Time = 15s

DILUPBiCGStab:  Solving for Ux, Initial residual = 0.114287, Final residual = 1.55227e-11, No Iterations 5
DILUPBiCGStab:  Solving for Uy, Initial residual = 0.166088, Final residual = 7.8523e-09, No Iterations 4
DILUPBiCGStab:  Solving for Uz, Initial residual = 0.17341, Final residual = 2.23014e-09, No Iterations 4
GAMG:  Solving for p, Initial residual = 0.527963, Final residual = 0.0359842, No Iterations 3
time step continuity errors : sum local = 9.34339, global = 0.61734, cumulative = 3.68231
DILUPBiCGStab:  Solving for omega, Initial residual = 0.35882, Final residual = 9.84076e-09, No Iterations 53
DILUPBiCGStab:  Solving for k, Initial residual = 0.467603, Final residual = 8.96988e-09, No Iterations 13
bounding k, min: -13.795 max: 278042 average: 254.434
ExecutionTime = 63.6873 s  ClockTime = 63 s

forceCoeffs forces write:
    Cm    = -114.889
    Cd    = -2444.71
    Cl    = 630.5
    Cl(f) = 200.361
    Cl(r) = 430.139

Time = 16s

DILUPBiCGStab:  Solving for Ux, Initial residual = 0.119559, Final residual = 3.17349e-09, No Iterations 4
DILUPBiCGStab:  Solving for Uy, Initial residual = 0.161918, Final residual = 6.25636e-09, No Iterations 4
DILUPBiCGStab:  Solving for Uz, Initial residual = 0.171865, Final residual = 5.71434e-09, No Iterations 4
GAMG:  Solving for p, Initial residual = 0.234163, Final residual = 0.0126824, No Iterations 3
time step continuity errors : sum local = 8.67827, global = -0.0722109, cumulative = 3.6101
DILUPBiCGStab:  Solving for omega, Initial residual = 0.506851, Final residual = 2.05687e-09, No Iterations 13
DILUPBiCGStab:  Solving for k, Initial residual = 0.452155, Final residual = 9.34136e-09, No Iterations 38
ExecutionTime = 67.3929 s  ClockTime = 67 s

forceCoeffs forces write:
    Cm    = -2708
    Cd    = -18313.5
    Cl    = 1183.69
    Cl(f) = -2116.15
    Cl(r) = 3299.84

Time = 17s

DILUPBiCGStab:  Solving for Ux, Initial residual = 0.112924, Final residual = 4.92645e-09, No Iterations 4
DILUPBiCGStab:  Solving for Uy, Initial residual = 0.151408, Final residual = 7.65591e-09, No Iterations 4
DILUPBiCGStab:  Solving for Uz, Initial residual = 0.161495, Final residual = 7.63302e-09, No Iterations 4
GAMG:  Solving for p, Initial residual = 0.218048, Final residual = 0.0197832, No Iterations 2
time step continuity errors : sum local = 16.1661, global = -0.618062, cumulative = 2.99204
DILUPBiCGStab:  Solving for omega, Initial residual = 0.305944, Final residual = 8.87253e-09, No Iterations 49
DILUPBiCGStab:  Solving for k, Initial residual = 0.48741, Final residual = 9.69845e-09, No Iterations 17
bounding k, min: -54.935 max: 879174 average: 855.746
ExecutionTime = 71.6648 s  ClockTime = 71 s

forceCoeffs forces write:
    Cm    = -2609.69
    Cd    = -18523.2
    Cl    = 1415.67
    Cl(f) = -1901.85
    Cl(r) = 3317.52

Time = 18s

DILUPBiCGStab:  Solving for Ux, Initial residual = 0.115849, Final residual = 1.7128e-09, No Iterations 4
DILUPBiCGStab:  Solving for Uy, Initial residual = 0.165833, Final residual = 5.61894e-09, No Iterations 4
DILUPBiCGStab:  Solving for Uz, Initial residual = 0.171572, Final residual = 1.34233e-09, No Iterations 4
GAMG:  Solving for p, Initial residual = 0.201074, Final residual = 0.0165754, No Iterations 2
time step continuity errors : sum local = 17.3517, global = -1.1851, cumulative = 1.80694
DILUPBiCGStab:  Solving for omega, Initial residual = 0.451332, Final residual = 4.36884e-09, No Iterations 13
DILUPBiCGStab:  Solving for k, Initial residual = 0.419532, Final residual = 3.27737e-09, No Iterations 35
ExecutionTime = 75.2225 s  ClockTime = 75 s

forceCoeffs forces write:
    Cm    = -817.722
    Cd    = -9215.68
    Cl    = 1497.62
    Cl(f) = -68.9122
    Cl(r) = 1566.53

Time = 19s

DILUPBiCGStab:  Solving for Ux, Initial residual = 0.103355, Final residual = 1.21019e-09, No Iterations 4
DILUPBiCGStab:  Solving for Uy, Initial residual = 0.133148, Final residual = 2.39853e-09, No Iterations 4
DILUPBiCGStab:  Solving for Uz, Initial residual = 0.129081, Final residual = 2.25138e-09, No Iterations 4
GAMG:  Solving for p, Initial residual = 0.345372, Final residual = 0.0261774, No Iterations 2
time step continuity errors : sum local = 17.3482, global = -1.26735, cumulative = 0.539587
DILUPBiCGStab:  Solving for omega, Initial residual = 0.259078, Final residual = 7.03112e-09, No Iterations 42
DILUPBiCGStab:  Solving for k, Initial residual = 0.461918, Final residual = 9.2593e-09, No Iterations 44
bounding k, min: -226.123 max: 1.37131e+06 average: 2349.65
ExecutionTime = 80.2828 s  ClockTime = 80 s

forceCoeffs forces write:
    Cm    = 1246.35
    Cd    = 1978.76
    Cl    = 1452.86
    Cl(f) = 1972.78
    Cl(r) = -519.924

Time = 20s

DILUPBiCGStab:  Solving for Ux, Initial residual = 0.107093, Final residual = 1.12391e-09, No Iterations 4
DILUPBiCGStab:  Solving for Uy, Initial residual = 0.132918, Final residual = 1.50256e-09, No Iterations 4
DILUPBiCGStab:  Solving for Uz, Initial residual = 0.131427, Final residual = 1.76587e-09, No Iterations 4
GAMG:  Solving for p, Initial residual = 0.507111, Final residual = 0.0319862, No Iterations 2
time step continuity errors : sum local = 15.8309, global = -0.792908, cumulative = -0.253322
DILUPBiCGStab:  Solving for omega, Initial residual = 0.365554, Final residual = 9.28166e-09, No Iterations 22
DILUPBiCGStab:  Solving for k, Initial residual = 0.387131, Final residual = 6.86877e-09, No Iterations 35
ExecutionTime = 84.5021 s  ClockTime = 84 s

forceCoeffs forces write:
    Cm    = 2308.91
    Cd    = 8623.31
    Cl    = 1178.38
    Cl(f) = 2898.1
    Cl(r) = -1719.72

Time = 21s

DILUPBiCGStab:  Solving for Ux, Initial residual = 0.104326, Final residual = 1.33557e-09, No Iterations 4
DILUPBiCGStab:  Solving for Uy, Initial residual = 0.111412, Final residual = 2.05262e-09, No Iterations 4
DILUPBiCGStab:  Solving for Uz, Initial residual = 0.108743, Final residual = 1.02284e-09, No Iterations 4
GAMG:  Solving for p, Initial residual = 0.370026, Final residual = 0.0202642, No Iterations 2
time step continuity errors : sum local = 14.4142, global = -0.373652, cumulative = -0.626974
DILUPBiCGStab:  Solving for omega, Initial residual = 0.218181, Final residual = 7.59325e-09, No Iterations 35
DILUPBiCGStab:  Solving for k, Initial residual = 0.412993, Final residual = 8.74716e-09, No Iterations 34
bounding k, min: -2576.09 max: 3.84561e+06 average: 4851.6
ExecutionTime = 89.2935 s  ClockTime = 89 s

forceCoeffs forces write:
    Cm    = 2019.09
    Cd    = 8218.2
    Cl    = 890.598
    Cl(f) = 2464.39
    Cl(r) = -1573.79

Time = 22s

DILUPBiCGStab:  Solving for Ux, Initial residual = 0.106206, Final residual = 1.46143e-09, No Iterations 4
DILUPBiCGStab:  Solving for Uy, Initial residual = 0.108612, Final residual = 7.78268e-09, No Iterations 4
DILUPBiCGStab:  Solving for Uz, Initial residual = 0.107016, Final residual = 1.29689e-09, No Iterations 4
GAMG:  Solving for p, Initial residual = 0.308372, Final residual = 0.0180117, No Iterations 2
time step continuity errors : sum local = 17.4515, global = 0.777388, cumulative = 0.150414
DILUPBiCGStab:  Solving for omega, Initial residual = 0.271514, Final residual = 3.34393e-09, No Iterations 22
DILUPBiCGStab:  Solving for k, Initial residual = 0.213602, Final residual = 8.58391e-09, No Iterations 30
ExecutionTime = 93.1309 s  ClockTime = 93 s

forceCoeffs forces write:
    Cm    = 873.684
    Cd    = 3429.32
    Cl    = 521.173
    Cl(f) = 1134.27
    Cl(r) = -613.098

Time = 23s

DILUPBiCGStab:  Solving for Ux, Initial residual = 0.097979, Final residual = 6.16231e-10, No Iterations 4
DILUPBiCGStab:  Solving for Uy, Initial residual = 0.0903195, Final residual = 1.00263e-09, No Iterations 4
DILUPBiCGStab:  Solving for Uz, Initial residual = 0.083042, Final residual = 8.33518e-09, No Iterations 3
GAMG:  Solving for p, Initial residual = 0.381308, Final residual = 0.0191607, No Iterations 2
time step continuity errors : sum local = 16.7695, global = 1.48275, cumulative = 1.63317
DILUPBiCGStab:  Solving for omega, Initial residual = 0.338887, Final residual = 5.97622e-09, No Iterations 35
DILUPBiCGStab:  Solving for k, Initial residual = 0.193399, Final residual = 9.46403e-09, No Iterations 35
bounding k, min: -3196.89 max: 5.81105e+06 average: 7741.67
ExecutionTime = 97.6423 s  ClockTime = 97 s

forceCoeffs forces write:
    Cm    = -362.826
    Cd    = -1965.54
    Cl    = 174.93
    Cl(f) = -275.361
    Cl(r) = 450.291

Time = 24s

DILUPBiCGStab:  Solving for Ux, Initial residual = 0.0951967, Final residual = 8.80866e-09, No Iterations 3
DILUPBiCGStab:  Solving for Uy, Initial residual = 0.0858043, Final residual = 9.04609e-10, No Iterations 4
DILUPBiCGStab:  Solving for Uz, Initial residual = 0.0774917, Final residual = 9.46916e-09, No Iterations 4
GAMG:  Solving for p, Initial residual = 0.408389, Final residual = 0.0170982, No Iterations 2
time step continuity errors : sum local = 14.6429, global = 2.41409, cumulative = 4.04726
DILUPBiCGStab:  Solving for omega, Initial residual = 0.355667, Final residual = 4.16805e-09, No Iterations 25
DILUPBiCGStab:  Solving for k, Initial residual = 0.18855, Final residual = 8.77098e-09, No Iterations 32
ExecutionTime = 101.431 s  ClockTime = 101 s

forceCoeffs forces write:
    Cm    = -985.531
    Cd    = -4968.84
    Cl    = 23.3943
    Cl(f) = -973.834
    Cl(r) = 997.228

Time = 25s

DILUPBiCGStab:  Solving for Ux, Initial residual = 0.08727, Final residual = 7.05275e-09, No Iterations 3
DILUPBiCGStab:  Solving for Uy, Initial residual = 0.0794689, Final residual = 1.49885e-09, No Iterations 4
DILUPBiCGStab:  Solving for Uz, Initial residual = 0.0627495, Final residual = 1.45038e-09, No Iterations 4
GAMG:  Solving for p, Initial residual = 0.390707, Final residual = 0.0137525, No Iterations 2
time step continuity errors : sum local = 11.8962, global = 2.85485, cumulative = 6.90211
DILUPBiCGStab:  Solving for omega, Initial residual = 0.336789, Final residual = 1.73893e-09, No Iterations 44
DILUPBiCGStab:  Solving for k, Initial residual = 0.16127, Final residual = 5.88459e-09, No Iterations 44
bounding k, min: -1992.87 max: 3.63041e+06 average: 9146.73
ExecutionTime = 106.62 s  ClockTime = 106 s

forceCoeffs forces write:
    Cm    = -833.316
    Cd    = -4396.4
    Cl    = -46.7871
    Cl(f) = -856.709
    Cl(r) = 809.922

Time = 26s

DILUPBiCGStab:  Solving for Ux, Initial residual = 0.0830317, Final residual = 2.7807e-09, No Iterations 4
DILUPBiCGStab:  Solving for Uy, Initial residual = 0.0781926, Final residual = 8.49979e-09, No Iterations 3
DILUPBiCGStab:  Solving for Uz, Initial residual = 0.0629563, Final residual = 7.06701e-10, No Iterations 4
GAMG:  Solving for p, Initial residual = 0.307721, Final residual = 0.0101817, No Iterations 2
time step continuity errors : sum local = 10.427, global = 2.91983, cumulative = 9.82194
DILUPBiCGStab:  Solving for omega, Initial residual = 0.304226, Final residual = 8.89169e-09, No Iterations 29
DILUPBiCGStab:  Solving for k, Initial residual = 0.154064, Final residual = 8.84711e-09, No Iterations 36
ExecutionTime = 111.026 s  ClockTime = 111 s

forceCoeffs forces write:
    Cm    = -190.281
    Cd    = -1770.35
    Cl    = 99.3323
    Cl(f) = -140.615
    Cl(r) = 239.948

Time = 27s

DILUPBiCGStab:  Solving for Ux, Initial residual = 0.0749064, Final residual = 2.92905e-09, No Iterations 4
DILUPBiCGStab:  Solving for Uy, Initial residual = 0.0757787, Final residual = 8.41652e-09, No Iterations 3
DILUPBiCGStab:  Solving for Uz, Initial residual = 0.057327, Final residual = 8.47626e-09, No Iterations 3
GAMG:  Solving for p, Initial residual = 0.281084, Final residual = 0.0114276, No Iterations 2
time step continuity errors : sum local = 11.5038, global = 3.1846, cumulative = 13.0065
DILUPBiCGStab:  Solving for omega, Initial residual = 0.290948, Final residual = 7.12579e-09, No Iterations 45
DILUPBiCGStab:  Solving for k, Initial residual = 0.174723, Final residual = 7.62208e-09, No Iterations 44
bounding k, min: -818.128 max: 4.1235e+06 average: 10478.3
ExecutionTime = 116.287 s  ClockTime = 116 s

forceCoeffs forces write:
    Cm    = 503.074
    Cd    = 825.832
    Cl    = 379.42
    Cl(f) = 692.784
    Cl(r) = -313.364

Time = 28s

DILUPBiCGStab:  Solving for Ux, Initial residual = 0.0732582, Final residual = 3.20186e-09, No Iterations 4
DILUPBiCGStab:  Solving for Uy, Initial residual = 0.0754804, Final residual = 8.59492e-09, No Iterations 3
DILUPBiCGStab:  Solving for Uz, Initial residual = 0.0546909, Final residual = 8.42219e-09, No Iterations 3
GAMG:  Solving for p, Initial residual = 0.234206, Final residual = 0.0109959, No Iterations 2
time step continuity errors : sum local = 11.9487, global = 2.66731, cumulative = 15.6738
DILUPBiCGStab:  Solving for omega, Initial residual = 0.26033, Final residual = 7.03313e-09, No Iterations 38
DILUPBiCGStab:  Solving for k, Initial residual = 0.175594, Final residual = 8.94614e-09, No Iterations 42
ExecutionTime = 121.213 s  ClockTime = 121 s

forceCoeffs forces write:
    Cm    = 853.612
    Cd    = 2064.46
    Cl    = 582.326
    Cl(f) = 1144.78
    Cl(r) = -562.449

Time = 29s

DILUPBiCGStab:  Solving for Ux, Initial residual = 0.0712971, Final residual = 7.84366e-09, No Iterations 3
DILUPBiCGStab:  Solving for Uy, Initial residual = 0.072714, Final residual = 1.57597e-09, No Iterations 4
DILUPBiCGStab:  Solving for Uz, Initial residual = 0.0520259, Final residual = 1.39717e-09, No Iterations 4
GAMG:  Solving for p, Initial residual = 0.231568, Final residual = 0.0110338, No Iterations 2
time step continuity errors : sum local = 11.636, global = 2.26847, cumulative = 17.9423
DILUPBiCGStab:  Solving for omega, Initial residual = 0.223702, Final residual = 3.13875e-09, No Iterations 45
DILUPBiCGStab:  Solving for k, Initial residual = 0.161511, Final residual = 3.28238e-09, No Iterations 46
ExecutionTime = 126.699 s  ClockTime = 126 s

forceCoeffs forces write:
    Cm    = 861.986
    Cd    = 1659.6
    Cl    = 820.797
    Cl(f) = 1272.38
    Cl(r) = -451.588

Time = 30s

DILUPBiCGStab:  Solving for Ux, Initial residual = 0.071628, Final residual = 9.51929e-09, No Iterations 3
DILUPBiCGStab:  Solving for Uy, Initial residual = 0.0732775, Final residual = 1.38698e-09, No Iterations 4
DILUPBiCGStab:  Solving for Uz, Initial residual = 0.0543412, Final residual = 1.94579e-09, No Iterations 4
GAMG:  Solving for p, Initial residual = 0.218239, Final residual = 0.00977794, No Iterations 2
time step continuity errors : sum local = 11.4716, global = 1.99937, cumulative = 19.9417
DILUPBiCGStab:  Solving for omega, Initial residual = 0.183, Final residual = 9.73645e-09, No Iterations 44
DILUPBiCGStab:  Solving for k, Initial residual = 0.158955, Final residual = 7.51603e-09, No Iterations 47
ExecutionTime = 131.867 s  ClockTime = 132 s

forceCoeffs forces write:
    Cm    = 578.642
    Cd    = 369.832
    Cl    = 847.748
    Cl(f) = 1002.52
    Cl(r) = -154.768

Time = 31s

DILUPBiCGStab:  Solving for Ux, Initial residual = 0.0696748, Final residual = 9.14821e-09, No Iterations 3
DILUPBiCGStab:  Solving for Uy, Initial residual = 0.072841, Final residual = 1.17942e-09, No Iterations 4
DILUPBiCGStab:  Solving for Uz, Initial residual = 0.0545965, Final residual = 2.98576e-09, No Iterations 4
GAMG:  Solving for p, Initial residual = 0.233891, Final residual = 0.0100794, No Iterations 2
time step continuity errors : sum local = 11.4331, global = 1.7832, cumulative = 21.7249
DILUPBiCGStab:  Solving for omega, Initial residual = 0.158564, Final residual = 9.58413e-09, No Iterations 46
DILUPBiCGStab:  Solving for k, Initial residual = 0.155253, Final residual = 8.25761e-09, No Iterations 47
ExecutionTime = 137.395 s  ClockTime = 137 s

forceCoeffs forces write:
    Cm    = 251.566
    Cd    = -902.487
    Cl    = 800.813
    Cl(f) = 651.972
    Cl(r) = 148.841

Time = 32s

DILUPBiCGStab:  Solving for Ux, Initial residual = 0.0708831, Final residual = 9.83568e-09, No Iterations 3
DILUPBiCGStab:  Solving for Uy, Initial residual = 0.0768884, Final residual = 8.19925e-10, No Iterations 4
DILUPBiCGStab:  Solving for Uz, Initial residual = 0.0579426, Final residual = 4.45565e-09, No Iterations 4
GAMG:  Solving for p, Initial residual = 0.214888, Final residual = 0.00867573, No Iterations 2
time step continuity errors : sum local = 10.985, global = 1.23938, cumulative = 22.9643
DILUPBiCGStab:  Solving for omega, Initial residual = 0.137181, Final residual = 9.53046e-09, No Iterations 43
DILUPBiCGStab:  Solving for k, Initial residual = 0.146099, Final residual = 7.95754e-09, No Iterations 44
ExecutionTime = 142.578 s  ClockTime = 142 s

forceCoeffs forces write:
    Cm    = 33.8953
    Cd    = -1492.13
    Cl    = 671.214
    Cl(f) = 369.502
    Cl(r) = 301.712

Time = 33s

DILUPBiCGStab:  Solving for Ux, Initial residual = 0.0717006, Final residual = 2.79386e-09, No Iterations 4
DILUPBiCGStab:  Solving for Uy, Initial residual = 0.0771726, Final residual = 4.91585e-10, No Iterations 4
DILUPBiCGStab:  Solving for Uz, Initial residual = 0.0580335, Final residual = 7.43438e-09, No Iterations 3
GAMG:  Solving for p, Initial residual = 0.237672, Final residual = 0.00798741, No Iterations 2
time step continuity errors : sum local = 9.59244, global = 0.628298, cumulative = 23.5926
DILUPBiCGStab:  Solving for omega, Initial residual = 0.121943, Final residual = 9.02104e-09, No Iterations 47
DILUPBiCGStab:  Solving for k, Initial residual = 0.145321, Final residual = 4.38006e-09, No Iterations 51
ExecutionTime = 148.987 s  ClockTime = 149 s

forceCoeffs forces write:
    Cm    = -48.7984
    Cd    = -1288.31
    Cl    = 474.166
    Cl(f) = 188.285
    Cl(r) = 285.882

Time = 34s

DILUPBiCGStab:  Solving for Ux, Initial residual = 0.0704532, Final residual = 1.46572e-09, No Iterations 4
DILUPBiCGStab:  Solving for Uy, Initial residual = 0.0770529, Final residual = 7.38977e-10, No Iterations 4
DILUPBiCGStab:  Solving for Uz, Initial residual = 0.0564557, Final residual = 7.72264e-09, No Iterations 3
GAMG:  Solving for p, Initial residual = 0.216667, Final residual = 0.0064712, No Iterations 2
time step continuity errors : sum local = 8.54519, global = -0.063591, cumulative = 23.529
DILUPBiCGStab:  Solving for omega, Initial residual = 0.11286, Final residual = 9.15506e-09, No Iterations 46
DILUPBiCGStab:  Solving for k, Initial residual = 0.133783, Final residual = 8.45737e-09, No Iterations 52
ExecutionTime = 154.463 s  ClockTime = 154 s

forceCoeffs forces write:
    Cm    = 15.5413
    Cd    = -604.636
    Cl    = 322.681
    Cl(f) = 176.882
    Cl(r) = 145.799

Time = 35s

DILUPBiCGStab:  Solving for Ux, Initial residual = 0.0647256, Final residual = 7.23679e-10, No Iterations 4
DILUPBiCGStab:  Solving for Uy, Initial residual = 0.0726976, Final residual = 9.19037e-09, No Iterations 3
DILUPBiCGStab:  Solving for Uz, Initial residual = 0.0516204, Final residual = 8.0295e-09, No Iterations 3
GAMG:  Solving for p, Initial residual = 0.225825, Final residual = 0.0220538, No Iterations 1
time step continuity errors : sum local = 26.7625, global = -0.454893, cumulative = 23.0741
DILUPBiCGStab:  Solving for omega, Initial residual = 0.111608, Final residual = 5.5955e-09, No Iterations 49
DILUPBiCGStab:  Solving for k, Initial residual = 0.135678, Final residual = 9.45096e-09, No Iterations 48
ExecutionTime = 159.78 s  ClockTime = 160 s

forceCoeffs forces write:
    Cm    = 102.422
    Cd    = -98.5398
    Cl    = 274.719
    Cl(f) = 239.782
    Cl(r) = 34.9372

Time = 36s

DILUPBiCGStab:  Solving for Ux, Initial residual = 0.0607821, Final residual = 1.30305e-09, No Iterations 4
DILUPBiCGStab:  Solving for Uy, Initial residual = 0.0692249, Final residual = 1.73939e-09, No Iterations 4
DILUPBiCGStab:  Solving for Uz, Initial residual = 0.0472478, Final residual = 4.96292e-09, No Iterations 3
GAMG:  Solving for p, Initial residual = 0.222146, Final residual = 0.00765086, No Iterations 2
time step continuity errors : sum local = 9.08291, global = -0.870734, cumulative = 22.2033
DILUPBiCGStab:  Solving for omega, Initial residual = 0.104007, Final residual = 5.00656e-09, No Iterations 49
DILUPBiCGStab:  Solving for k, Initial residual = 0.126743, Final residual = 6.77044e-09, No Iterations 56
ExecutionTime = 165.472 s  ClockTime = 165 s

forceCoeffs forces write:
    Cm    = 232.076
    Cd    = 378.885
    Cl    = 245.135
    Cl(f) = 354.644
    Cl(r) = -109.509

Time = 37s

DILUPBiCGStab:  Solving for Ux, Initial residual = 0.0533251, Final residual = 5.90361e-09, No Iterations 3
DILUPBiCGStab:  Solving for Uy, Initial residual = 0.0645823, Final residual = 2.36213e-09, No Iterations 4
DILUPBiCGStab:  Solving for Uz, Initial residual = 0.0432687, Final residual = 5.56768e-09, No Iterations 3
GAMG:  Solving for p, Initial residual = 0.241151, Final residual = 0.0240732, No Iterations 1
time step continuity errors : sum local = 24.4727, global = -1.95068, cumulative = 20.2527
DILUPBiCGStab:  Solving for omega, Initial residual = 0.11546, Final residual = 5.92739e-09, No Iterations 52
DILUPBiCGStab:  Solving for k, Initial residual = 0.126055, Final residual = 9.44482e-09, No Iterations 55
ExecutionTime = 171.122 s  ClockTime = 171 s

forceCoeffs forces write:
    Cm    = 262.404
    Cd    = 409.769
    Cl    = 264.509
    Cl(f) = 394.658
    Cl(r) = -130.149

Time = 38s

DILUPBiCGStab:  Solving for Ux, Initial residual = 0.049625, Final residual = 8.78713e-09, No Iterations 3
DILUPBiCGStab:  Solving for Uy, Initial residual = 0.0625741, Final residual = 6.49407e-10, No Iterations 4
DILUPBiCGStab:  Solving for Uz, Initial residual = 0.0418194, Final residual = 7.80896e-09, No Iterations 3
GAMG:  Solving for p, Initial residual = 0.230016, Final residual = 0.00908479, No Iterations 2
time step continuity errors : sum local = 8.72271, global = -0.787284, cumulative = 19.4654
DILUPBiCGStab:  Solving for omega, Initial residual = 0.0993005, Final residual = 7.79813e-09, No Iterations 47
DILUPBiCGStab:  Solving for k, Initial residual = 0.119109, Final residual = 9.92016e-09, No Iterations 54
ExecutionTime = 177.106 s  ClockTime = 177 s

forceCoeffs forces write:
    Cm    = 272.084
    Cd    = 133.509
    Cl    = 331.923
    Cl(f) = 438.045
    Cl(r) = -106.122

Time = 39s

DILUPBiCGStab:  Solving for Ux, Initial residual = 0.0434555, Final residual = 3.61313e-10, No Iterations 4
DILUPBiCGStab:  Solving for Uy, Initial residual = 0.06133, Final residual = 5.48425e-10, No Iterations 4
DILUPBiCGStab:  Solving for Uz, Initial residual = 0.0415576, Final residual = 5.25874e-09, No Iterations 3
GAMG:  Solving for p, Initial residual = 0.24524, Final residual = 0.00807736, No Iterations 2
time step continuity errors : sum local = 6.15357, global = -0.806211, cumulative = 18.6592
DILUPBiCGStab:  Solving for omega, Initial residual = 0.111161, Final residual = 9.96508e-09, No Iterations 50
DILUPBiCGStab:  Solving for k, Initial residual = 0.123232, Final residual = 9.39983e-09, No Iterations 53
ExecutionTime = 182.868 s  ClockTime = 183 s

forceCoeffs forces write:
    Cm    = 242.767
    Cd    = -169.527
    Cl    = 400.839
    Cl(f) = 443.187
    Cl(r) = -42.3479

Time = 40s

DILUPBiCGStab:  Solving for Ux, Initial residual = 0.0408313, Final residual = 8.30213e-09, No Iterations 3
DILUPBiCGStab:  Solving for Uy, Initial residual = 0.0624253, Final residual = 7.37863e-10, No Iterations 4
DILUPBiCGStab:  Solving for Uz, Initial residual = 0.043478, Final residual = 5.65673e-09, No Iterations 3
GAMG:  Solving for p, Initial residual = 0.251215, Final residual = 0.024879, No Iterations 1
time step continuity errors : sum local = 15.7635, global = -1.3646, cumulative = 17.2946
DILUPBiCGStab:  Solving for omega, Initial residual = 0.10393, Final residual = 8.70573e-09, No Iterations 49
DILUPBiCGStab:  Solving for k, Initial residual = 0.119507, Final residual = 9.37466e-09, No Iterations 58
ExecutionTime = 188.564 s  ClockTime = 188 s

forceCoeffs forces write:
    Cm    = 204.335
    Cd    = -320.322
    Cl    = 401.664
    Cl(f) = 405.168
    Cl(r) = -3.50311

Time = 41s

DILUPBiCGStab:  Solving for Ux, Initial residual = 0.0379854, Final residual = 5.84089e-09, No Iterations 3
DILUPBiCGStab:  Solving for Uy, Initial residual = 0.0612199, Final residual = 7.00555e-10, No Iterations 4
DILUPBiCGStab:  Solving for Uz, Initial residual = 0.0420213, Final residual = 6.63223e-09, No Iterations 3
GAMG:  Solving for p, Initial residual = 0.249083, Final residual = 0.0092462, No Iterations 2
time step continuity errors : sum local = 5.17171, global = -0.728615, cumulative = 16.566
DILUPBiCGStab:  Solving for omega, Initial residual = 0.125169, Final residual = 4.34712e-09, No Iterations 52
DILUPBiCGStab:  Solving for k, Initial residual = 0.121561, Final residual = 8.45754e-09, No Iterations 62
ExecutionTime = 194.568 s  ClockTime = 194 s

forceCoeffs forces write:
    Cm    = 145.08
    Cd    = -326.381
    Cl    = 356.332
    Cl(f) = 323.246
    Cl(r) = 33.0858

Time = 42s

DILUPBiCGStab:  Solving for Ux, Initial residual = 0.0355814, Final residual = 7.28438e-09, No Iterations 3
DILUPBiCGStab:  Solving for Uy, Initial residual = 0.057562, Final residual = 8.45958e-10, No Iterations 4
DILUPBiCGStab:  Solving for Uz, Initial residual = 0.0402678, Final residual = 7.59669e-09, No Iterations 3
GAMG:  Solving for p, Initial residual = 0.228796, Final residual = 0.00916387, No Iterations 2
time step continuity errors : sum local = 4.89634, global = -0.502204, cumulative = 16.0638
DILUPBiCGStab:  Solving for omega, Initial residual = 0.107268, Final residual = 4.06386e-09, No Iterations 55
DILUPBiCGStab:  Solving for k, Initial residual = 0.117486, Final residual = 9.54106e-09, No Iterations 52
ExecutionTime = 200.38 s  ClockTime = 200 s

forceCoeffs forces write:
    Cm    = 91.8222
    Cd    = -215.297
    Cl    = 303.691
    Cl(f) = 243.668
    Cl(r) = 60.0235

Time = 43s

DILUPBiCGStab:  Solving for Ux, Initial residual = 0.0337407, Final residual = 9.01511e-09, No Iterations 3
DILUPBiCGStab:  Solving for Uy, Initial residual = 0.0538569, Final residual = 9.81762e-09, No Iterations 3
DILUPBiCGStab:  Solving for Uz, Initial residual = 0.0394094, Final residual = 8.44527e-09, No Iterations 3
GAMG:  Solving for p, Initial residual = 0.231454, Final residual = 0.00912036, No Iterations 2
time step continuity errors : sum local = 4.23928, global = -0.368565, cumulative = 15.6952
DILUPBiCGStab:  Solving for omega, Initial residual = 0.149654, Final residual = 9.1833e-09, No Iterations 50
DILUPBiCGStab:  Solving for k, Initial residual = 0.114908, Final residual = 5.83955e-09, No Iterations 53
ExecutionTime = 206.419 s  ClockTime = 206 s

forceCoeffs forces write:
    Cm    = 38.9528
    Cd    = -107.053
    Cl    = 192.065
    Cl(f) = 134.985
    Cl(r) = 57.0798

Time = 44s

DILUPBiCGStab:  Solving for Ux, Initial residual = 0.0321853, Final residual = 5.50438e-10, No Iterations 4
DILUPBiCGStab:  Solving for Uy, Initial residual = 0.0504197, Final residual = 8.95635e-09, No Iterations 3
DILUPBiCGStab:  Solving for Uz, Initial residual = 0.0383532, Final residual = 6.71127e-09, No Iterations 3
GAMG:  Solving for p, Initial residual = 0.200647, Final residual = 0.00773506, No Iterations 2
time step continuity errors : sum local = 3.68767, global = -0.351158, cumulative = 15.344
DILUPBiCGStab:  Solving for omega, Initial residual = 0.113034, Final residual = 9.23599e-09, No Iterations 49
DILUPBiCGStab:  Solving for k, Initial residual = 0.120851, Final residual = 5.3131e-09, No Iterations 56
ExecutionTime = 212.255 s  ClockTime = 212 s

forceCoeffs forces write:
    Cm    = 2.17275
    Cd    = -60.3484
    Cl    = 122.878
    Cl(f) = 63.6116
    Cl(r) = 59.2661

Time = 45s

DILUPBiCGStab:  Solving for Ux, Initial residual = 0.0313542, Final residual = 2.44497e-09, No Iterations 4
DILUPBiCGStab:  Solving for Uy, Initial residual = 0.0472401, Final residual = 8.81603e-09, No Iterations 3
DILUPBiCGStab:  Solving for Uz, Initial residual = 0.0376423, Final residual = 6.79912e-09, No Iterations 3
GAMG:  Solving for p, Initial residual = 0.209977, Final residual = 0.00837861, No Iterations 2
time step continuity errors : sum local = 3.41379, global = -0.345408, cumulative = 14.9986
DILUPBiCGStab:  Solving for omega, Initial residual = 0.214982, Final residual = 9.7425e-09, No Iterations 52
DILUPBiCGStab:  Solving for k, Initial residual = 0.107809, Final residual = 9.64333e-09, No Iterations 57
ExecutionTime = 218.285 s  ClockTime = 218 s

forceCoeffs forces write:
    Cm    = -20.8402
    Cd    = -84.7437
    Cl    = 69.2756
    Cl(f) = 13.7976
    Cl(r) = 55.478

Time = 46s

DILUPBiCGStab:  Solving for Ux, Initial residual = 0.0297271, Final residual = 6.70661e-09, No Iterations 3
DILUPBiCGStab:  Solving for Uy, Initial residual = 0.0434128, Final residual = 7.72581e-09, No Iterations 3
DILUPBiCGStab:  Solving for Uz, Initial residual = 0.0354648, Final residual = 6.77958e-09, No Iterations 3
GAMG:  Solving for p, Initial residual = 0.178427, Final residual = 0.0075584, No Iterations 2
time step continuity errors : sum local = 3.29587, global = -0.191996, cumulative = 14.8066
DILUPBiCGStab:  Solving for omega, Initial residual = 0.113107, Final residual = 5.60166e-09, No Iterations 52
DILUPBiCGStab:  Solving for k, Initial residual = 0.123593, Final residual = 7.04255e-09, No Iterations 57
ExecutionTime = 224.268 s  ClockTime = 224 s

forceCoeffs forces write:
    Cm    = -40.8281
    Cd    = -157.743
    Cl    = 7.98648
    Cl(f) = -36.8348
    Cl(r) = 44.8213

Time = 47s

DILUPBiCGStab:  Solving for Ux, Initial residual = 0.0293175, Final residual = 5.18123e-10, No Iterations 4
DILUPBiCGStab:  Solving for Uy, Initial residual = 0.0415229, Final residual = 8.01541e-09, No Iterations 3
DILUPBiCGStab:  Solving for Uz, Initial residual = 0.0348919, Final residual = 6.97431e-09, No Iterations 3
GAMG:  Solving for p, Initial residual = 0.197814, Final residual = 0.0085183, No Iterations 2
time step continuity errors : sum local = 3.07783, global = 0.0255817, cumulative = 14.8322
DILUPBiCGStab:  Solving for omega, Initial residual = 0.175025, Final residual = 4.95837e-09, No Iterations 53
DILUPBiCGStab:  Solving for k, Initial residual = 0.105804, Final residual = 7.20508e-09, No Iterations 59
ExecutionTime = 230.173 s  ClockTime = 230 s

forceCoeffs forces write:
    Cm    = -36.7054
    Cd    = -195.997
    Cl    = 8.70308
    Cl(f) = -32.3538
    Cl(r) = 41.0569

Time = 48s

DILUPBiCGStab:  Solving for Ux, Initial residual = 0.0279588, Final residual = 5.00975e-10, No Iterations 4
DILUPBiCGStab:  Solving for Uy, Initial residual = 0.0387607, Final residual = 8.09677e-09, No Iterations 3
DILUPBiCGStab:  Solving for Uz, Initial residual = 0.0334601, Final residual = 7.47661e-09, No Iterations 3
GAMG:  Solving for p, Initial residual = 0.175508, Final residual = 0.00692658, No Iterations 2
time step continuity errors : sum local = 2.61191, global = 0.0619744, cumulative = 14.8942
DILUPBiCGStab:  Solving for omega, Initial residual = 0.111535, Final residual = 8.9106e-09, No Iterations 53
DILUPBiCGStab:  Solving for k, Initial residual = 0.127067, Final residual = 7.09959e-09, No Iterations 57
ExecutionTime = 236.383 s  ClockTime = 236 s

forceCoeffs forces write:
    Cm    = -24.0044
    Cd    = -188.926
    Cl    = 13.2967
    Cl(f) = -17.3561
    Cl(r) = 30.6528

Time = 49s

DILUPBiCGStab:  Solving for Ux, Initial residual = 0.0280553, Final residual = 4.04347e-10, No Iterations 4
DILUPBiCGStab:  Solving for Uy, Initial residual = 0.0381424, Final residual = 7.76771e-09, No Iterations 3
DILUPBiCGStab:  Solving for Uz, Initial residual = 0.0339814, Final residual = 7.47299e-09, No Iterations 3
GAMG:  Solving for p, Initial residual = 0.207454, Final residual = 0.00771267, No Iterations 2
time step continuity errors : sum local = 2.31777, global = 0.0309334, cumulative = 14.9251
DILUPBiCGStab:  Solving for omega, Initial residual = 0.176552, Final residual = 8.14388e-09, No Iterations 49
DILUPBiCGStab:  Solving for k, Initial residual = 0.10011, Final residual = 9.07798e-09, No Iterations 62
ExecutionTime = 242.619 s  ClockTime = 242 s

forceCoeffs forces write:
    Cm    = -21.8392
    Cd    = -156.651
    Cl    = 17.6982
    Cl(f) = -12.9901
    Cl(r) = 30.6882

Time = 50s

DILUPBiCGStab:  Solving for Ux, Initial residual = 0.0266872, Final residual = 5.13337e-10, No Iterations 4
DILUPBiCGStab:  Solving for Uy, Initial residual = 0.0353594, Final residual = 6.17354e-09, No Iterations 3
DILUPBiCGStab:  Solving for Uz, Initial residual = 0.0322886, Final residual = 7.18784e-09, No Iterations 3
GAMG:  Solving for p, Initial residual = 0.179358, Final residual = 0.00728841, No Iterations 2
time step continuity errors : sum local = 2.33589, global = 0.00420018, cumulative = 14.9293
DILUPBiCGStab:  Solving for omega, Initial residual = 0.108149, Final residual = 7.54978e-09, No Iterations 54
DILUPBiCGStab:  Solving for k, Initial residual = 0.124861, Final residual = 4.51961e-09, No Iterations 55
ExecutionTime = 248.639 s  ClockTime = 248 s

forceCoeffs forces write:
    Cm    = -24.0897
    Cd    = -108.989
    Cl    = 26.2874
    Cl(f) = -10.946
    Cl(r) = 37.2333

Time = 51s

DILUPBiCGStab:  Solving for Ux, Initial residual = 0.0270484, Final residual = 2.07606e-09, No Iterations 4
DILUPBiCGStab:  Solving for Uy, Initial residual = 0.0351104, Final residual = 5.52819e-09, No Iterations 3
DILUPBiCGStab:  Solving for Uz, Initial residual = 0.0328138, Final residual = 6.65246e-09, No Iterations 3
GAMG:  Solving for p, Initial residual = 0.193223, Final residual = 0.00840823, No Iterations 2
time step continuity errors : sum local = 2.28841, global = -0.0391453, cumulative = 14.8902
DILUPBiCGStab:  Solving for omega, Initial residual = 0.181584, Final residual = 8.87541e-09, No Iterations 49
DILUPBiCGStab:  Solving for k, Initial residual = 0.0941729, Final residual = 9.65819e-09, No Iterations 57
ExecutionTime = 254.863 s  ClockTime = 255 s

forceCoeffs forces write:
    Cm    = -40.9487
    Cd    = -76.9801
    Cl    = -0.210884
    Cl(f) = -41.0542
    Cl(r) = 40.8433

Time = 52s

DILUPBiCGStab:  Solving for Ux, Initial residual = 0.0253806, Final residual = 6.82949e-10, No Iterations 4
DILUPBiCGStab:  Solving for Uy, Initial residual = 0.0328074, Final residual = 4.61633e-09, No Iterations 3
DILUPBiCGStab:  Solving for Uz, Initial residual = 0.0313803, Final residual = 5.36852e-09, No Iterations 3
GAMG:  Solving for p, Initial residual = 0.163948, Final residual = 0.00688987, No Iterations 2
time step continuity errors : sum local = 2.00882, global = -0.161152, cumulative = 14.729
DILUPBiCGStab:  Solving for omega, Initial residual = 0.10559, Final residual = 4.3603e-09, No Iterations 54
DILUPBiCGStab:  Solving for k, Initial residual = 0.122882, Final residual = 2.26523e-09, No Iterations 55
ExecutionTime = 260.851 s  ClockTime = 261 s

forceCoeffs forces write:
    Cm    = -67.6692
    Cd    = -62.0216
    Cl    = -30.6603
    Cl(f) = -82.9994
    Cl(r) = 52.3391

Time = 53s

DILUPBiCGStab:  Solving for Ux, Initial residual = 0.0257323, Final residual = 5.71329e-09, No Iterations 3
DILUPBiCGStab:  Solving for Uy, Initial residual = 0.0336577, Final residual = 6.41972e-09, No Iterations 3
DILUPBiCGStab:  Solving for Uz, Initial residual = 0.0326849, Final residual = 5.51149e-09, No Iterations 3
GAMG:  Solving for p, Initial residual = 0.174333, Final residual = 0.00710732, No Iterations 2
time step continuity errors : sum local = 1.78571, global = -0.191599, cumulative = 14.5374
DILUPBiCGStab:  Solving for omega, Initial residual = 0.193359, Final residual = 9.99347e-09, No Iterations 48
DILUPBiCGStab:  Solving for k, Initial residual = 0.0883803, Final residual = 8.30236e-09, No Iterations 65
ExecutionTime = 267.218 s  ClockTime = 267 s

forceCoeffs forces write:
    Cm    = -93.5078
    Cd    = -67.2778
    Cl    = -76.7131
    Cl(f) = -131.864
    Cl(r) = 55.1512

Time = 54s

DILUPBiCGStab:  Solving for Ux, Initial residual = 0.023839, Final residual = 4.23174e-09, No Iterations 3
DILUPBiCGStab:  Solving for Uy, Initial residual = 0.0313744, Final residual = 1.52838e-09, No Iterations 4
DILUPBiCGStab:  Solving for Uz, Initial residual = 0.0308651, Final residual = 3.7833e-09, No Iterations 3
GAMG:  Solving for p, Initial residual = 0.158362, Final residual = 0.00694937, No Iterations 2
time step continuity errors : sum local = 1.7762, global = -0.198429, cumulative = 14.339
DILUPBiCGStab:  Solving for omega, Initial residual = 0.107156, Final residual = 8.83771e-09, No Iterations 50
DILUPBiCGStab:  Solving for k, Initial residual = 0.124526, Final residual = 6.3561e-09, No Iterations 48
ExecutionTime = 272.719 s  ClockTime = 272 s

forceCoeffs forces write:
    Cm    = -116.644
    Cd    = -83.6573
    Cl    = -124.555
    Cl(f) = -178.922
    Cl(r) = 54.3668

Time = 55s

DILUPBiCGStab:  Solving for Ux, Initial residual = 0.0244788, Final residual = 3.25646e-09, No Iterations 3
DILUPBiCGStab:  Solving for Uy, Initial residual = 0.0324399, Final residual = 9.62726e-10, No Iterations 4
DILUPBiCGStab:  Solving for Uz, Initial residual = 0.0320721, Final residual = 4.44748e-09, No Iterations 3
GAMG:  Solving for p, Initial residual = 0.182767, Final residual = 0.00821325, No Iterations 2
time step continuity errors : sum local = 1.7339, global = -0.161393, cumulative = 14.1776
DILUPBiCGStab:  Solving for omega, Initial residual = 0.206318, Final residual = 9.08872e-09, No Iterations 47
DILUPBiCGStab:  Solving for k, Initial residual = 0.0845766, Final residual = 2.97526e-09, No Iterations 70
ExecutionTime = 278.844 s  ClockTime = 279 s

forceCoeffs forces write:
    Cm    = -123.048
    Cd    = -92.8181
    Cl    = -148.189
    Cl(f) = -197.143
    Cl(r) = 48.954

Time = 56s

DILUPBiCGStab:  Solving for Ux, Initial residual = 0.022451, Final residual = 2.69592e-09, No Iterations 3
DILUPBiCGStab:  Solving for Uy, Initial residual = 0.0298935, Final residual = 7.58806e-10, No Iterations 4
DILUPBiCGStab:  Solving for Uz, Initial residual = 0.0296142, Final residual = 3.59084e-09, No Iterations 3
GAMG:  Solving for p, Initial residual = 0.177901, Final residual = 0.00735764, No Iterations 2
time step continuity errors : sum local = 1.48446, global = -0.19252, cumulative = 13.9851
DILUPBiCGStab:  Solving for omega, Initial residual = 0.111946, Final residual = 8.66034e-09, No Iterations 52
DILUPBiCGStab:  Solving for k, Initial residual = 0.128105, Final residual = 8.10188e-09, No Iterations 48
ExecutionTime = 284.366 s  ClockTime = 284 s

forceCoeffs forces write:
    Cm    = -117.548
    Cd    = -91.434
    Cl    = -154.495
    Cl(f) = -194.796
    Cl(r) = 40.3006

Time = 57s

DILUPBiCGStab:  Solving for Ux, Initial residual = 0.0235449, Final residual = 3.02929e-09, No Iterations 3
DILUPBiCGStab:  Solving for Uy, Initial residual = 0.0309486, Final residual = 1.00336e-09, No Iterations 4
DILUPBiCGStab:  Solving for Uz, Initial residual = 0.0309147, Final residual = 7.35563e-09, No Iterations 3
GAMG:  Solving for p, Initial residual = 0.197566, Final residual = 0.00756082, No Iterations 2
time step continuity errors : sum local = 1.30483, global = -0.155606, cumulative = 13.8295
DILUPBiCGStab:  Solving for omega, Initial residual = 0.233105, Final residual = 8.40243e-09, No Iterations 51
DILUPBiCGStab:  Solving for k, Initial residual = 0.0822528, Final residual = 5.79568e-09, No Iterations 69
ExecutionTime = 290.587 s  ClockTime = 290 s

forceCoeffs forces write:
    Cm    = -109.971
    Cd    = -82.5282
    Cl    = -149.004
    Cl(f) = -184.473
    Cl(r) = 35.4689

Time = 58s

DILUPBiCGStab:  Solving for Ux, Initial residual = 0.0216113, Final residual = 2.33331e-09, No Iterations 3
DILUPBiCGStab:  Solving for Uy, Initial residual = 0.0283885, Final residual = 6.35178e-10, No Iterations 4
DILUPBiCGStab:  Solving for Uz, Initial residual = 0.0285386, Final residual = 4.47407e-09, No Iterations 3
GAMG:  Solving for p, Initial residual = 0.189309, Final residual = 0.00673633, No Iterations 2
time step continuity errors : sum local = 1.15493, global = -0.0685314, cumulative = 13.7609
DILUPBiCGStab:  Solving for omega, Initial residual = 0.1105, Final residual = 9.3284e-09, No Iterations 53
DILUPBiCGStab:  Solving for k, Initial residual = 0.132782, Final residual = 9.05693e-09, No Iterations 45
ExecutionTime = 296.008 s  ClockTime = 296 s

forceCoeffs forces write:
    Cm    = -100.545
    Cd    = -67.3977
    Cl    = -135.302
    Cl(f) = -168.196
    Cl(r) = 32.8933

Time = 59s

DILUPBiCGStab:  Solving for Ux, Initial residual = 0.0228872, Final residual = 6.55182e-09, No Iterations 3
DILUPBiCGStab:  Solving for Uy, Initial residual = 0.0296735, Final residual = 4.49617e-10, No Iterations 4
DILUPBiCGStab:  Solving for Uz, Initial residual = 0.0300066, Final residual = 9.67648e-09, No Iterations 3
GAMG:  Solving for p, Initial residual = 0.20141, Final residual = 0.00740825, No Iterations 2
time step continuity errors : sum local = 1.15426, global = 0.011515, cumulative = 13.7725
DILUPBiCGStab:  Solving for omega, Initial residual = 0.240539, Final residual = 9.94644e-09, No Iterations 50
DILUPBiCGStab:  Solving for k, Initial residual = 0.0805598, Final residual = 3.50023e-09, No Iterations 63
ExecutionTime = 302.046 s  ClockTime = 302 s

forceCoeffs forces write:
    Cm    = -96.7543
    Cd    = -52.7438
    Cl    = -130.468
    Cl(f) = -161.988
    Cl(r) = 31.5204

Time = 60s

DILUPBiCGStab:  Solving for Ux, Initial residual = 0.0207476, Final residual = 2.49185e-09, No Iterations 3
DILUPBiCGStab:  Solving for Uy, Initial residual = 0.0272437, Final residual = 3.19686e-10, No Iterations 4
DILUPBiCGStab:  Solving for Uz, Initial residual = 0.027298, Final residual = 7.5258e-09, No Iterations 3
GAMG:  Solving for p, Initial residual = 0.184452, Final residual = 0.00739581, No Iterations 2
time step continuity errors : sum local = 1.18617, global = 0.0252902, cumulative = 13.7978
DILUPBiCGStab:  Solving for omega, Initial residual = 0.109831, Final residual = 3.15182e-09, No Iterations 56
DILUPBiCGStab:  Solving for k, Initial residual = 0.142262, Final residual = 8.15173e-09, No Iterations 46
bounding k, min: -3.14916 max: 1.97678e+06 average: 6312.77
ExecutionTime = 308.102 s  ClockTime = 308 s

forceCoeffs forces write:
    Cm    = -96.2184
    Cd    = -35.6164
    Cl    = -127.998
    Cl(f) = -160.218
    Cl(r) = 32.2193

Time = 61s

DILUPBiCGStab:  Solving for Ux, Initial residual = 0.0221672, Final residual = 3.20872e-09, No Iterations 3
DILUPBiCGStab:  Solving for Uy, Initial residual = 0.0288577, Final residual = 4.0459e-10, No Iterations 4
DILUPBiCGStab:  Solving for Uz, Initial residual = 0.0286526, Final residual = 3.04939e-10, No Iterations 4
GAMG:  Solving for p, Initial residual = 0.191939, Final residual = 0.0079354, No Iterations 2
time step continuity errors : sum local = 1.17565, global = 0.0329292, cumulative = 13.8307
DILUPBiCGStab:  Solving for omega, Initial residual = 0.24232, Final residual = 8.48189e-09, No Iterations 45
DILUPBiCGStab:  Solving for k, Initial residual = 0.0786046, Final residual = 7.69372e-09, No Iterations 65
ExecutionTime = 314.067 s  ClockTime = 314 s

forceCoeffs forces write:
    Cm    = -100.038
    Cd    = -30.6851
    Cl    = -135.123
    Cl(f) = -167.599
    Cl(r) = 32.4763

Time = 62s

DILUPBiCGStab:  Solving for Ux, Initial residual = 0.01993, Final residual = 2.68615e-09, No Iterations 3
DILUPBiCGStab:  Solving for Uy, Initial residual = 0.0263658, Final residual = 4.29721e-10, No Iterations 4
DILUPBiCGStab:  Solving for Uz, Initial residual = 0.0258421, Final residual = 1.96085e-10, No Iterations 4
GAMG:  Solving for p, Initial residual = 0.171668, Final residual = 0.00724998, No Iterations 2
time step continuity errors : sum local = 1.12248, global = -0.057264, cumulative = 13.7734
DILUPBiCGStab:  Solving for omega, Initial residual = 0.114569, Final residual = 9.47699e-09, No Iterations 54
DILUPBiCGStab:  Solving for k, Initial residual = 0.154908, Final residual = 8.78547e-09, No Iterations 44
bounding k, min: -1294.38 max: 2.09415e+06 average: 6175.06
ExecutionTime = 319.523 s  ClockTime = 319 s

forceCoeffs forces write:
    Cm    = -105.783
    Cd    = -28.974
    Cl    = -148.326
    Cl(f) = -179.946
    Cl(r) = 31.6202

Time = 63s

DILUPBiCGStab:  Solving for Ux, Initial residual = 0.0214385, Final residual = 3.39263e-09, No Iterations 3
DILUPBiCGStab:  Solving for Uy, Initial residual = 0.0282482, Final residual = 1.32433e-09, No Iterations 4
DILUPBiCGStab:  Solving for Uz, Initial residual = 0.0273523, Final residual = 3.17188e-10, No Iterations 4
GAMG:  Solving for p, Initial residual = 0.181984, Final residual = 0.00758897, No Iterations 2
time step continuity errors : sum local = 1.07183, global = -0.105093, cumulative = 13.6683
DILUPBiCGStab:  Solving for omega, Initial residual = 0.260524, Final residual = 7.69836e-09, No Iterations 50
DILUPBiCGStab:  Solving for k, Initial residual = 0.0766109, Final residual = 6.61547e-09, No Iterations 59
ExecutionTime = 325.844 s  ClockTime = 326 s

forceCoeffs forces write:
    Cm    = -109.213
    Cd    = -30.9572
    Cl    = -158.382
    Cl(f) = -188.404
    Cl(r) = 30.0219

Time = 64s

DILUPBiCGStab:  Solving for Ux, Initial residual = 0.0192845, Final residual = 2.65521e-09, No Iterations 3
DILUPBiCGStab:  Solving for Uy, Initial residual = 0.0257137, Final residual = 2.90179e-09, No Iterations 4
DILUPBiCGStab:  Solving for Uz, Initial residual = 0.0247089, Final residual = 2.45803e-10, No Iterations 4
GAMG:  Solving for p, Initial residual = 0.168665, Final residual = 0.00728568, No Iterations 2
time step continuity errors : sum local = 1.06028, global = -0.187913, cumulative = 13.4804
DILUPBiCGStab:  Solving for omega, Initial residual = 0.129101, Final residual = 8.6613e-09, No Iterations 52
DILUPBiCGStab:  Solving for k, Initial residual = 0.167171, Final residual = 6.91987e-09, No Iterations 50
bounding k, min: -990.254 max: 2.1917e+06 average: 6043.73
ExecutionTime = 331.616 s  ClockTime = 331 s

forceCoeffs forces write:
    Cm    = -110.959
    Cd    = -30.1532
    Cl    = -173.109
    Cl(f) = -197.513
    Cl(r) = 24.4045

Time = 65s

DILUPBiCGStab:  Solving for Ux, Initial residual = 0.0207489, Final residual = 5.48637e-09, No Iterations 3
DILUPBiCGStab:  Solving for Uy, Initial residual = 0.0274375, Final residual = 6.17222e-09, No Iterations 3
DILUPBiCGStab:  Solving for Uz, Initial residual = 0.0260997, Final residual = 6.73408e-10, No Iterations 4
GAMG:  Solving for p, Initial residual = 0.185604, Final residual = 0.00828657, No Iterations 2
time step continuity errors : sum local = 1.06126, global = -0.130178, cumulative = 13.3502
DILUPBiCGStab:  Solving for omega, Initial residual = 0.277562, Final residual = 9.42703e-09, No Iterations 51
DILUPBiCGStab:  Solving for k, Initial residual = 0.0735982, Final residual = 6.65426e-09, No Iterations 60
ExecutionTime = 337.808 s  ClockTime = 338 s

forceCoeffs forces write:
    Cm    = -110.291
    Cd    = -30.4699
    Cl    = -178.341
    Cl(f) = -199.461
    Cl(r) = 21.1202

Time = 66s

DILUPBiCGStab:  Solving for Ux, Initial residual = 0.0187437, Final residual = 4.06846e-09, No Iterations 3
DILUPBiCGStab:  Solving for Uy, Initial residual = 0.0248277, Final residual = 1.07971e-09, No Iterations 4
DILUPBiCGStab:  Solving for Uz, Initial residual = 0.0235846, Final residual = 4.44819e-10, No Iterations 4
GAMG:  Solving for p, Initial residual = 0.190935, Final residual = 0.0083875, No Iterations 2
time step continuity errors : sum local = 1.02978, global = -0.186511, cumulative = 13.1637
DILUPBiCGStab:  Solving for omega, Initial residual = 0.16758, Final residual = 9.37047e-09, No Iterations 51
DILUPBiCGStab:  Solving for k, Initial residual = 0.180883, Final residual = 7.71857e-09, No Iterations 48
ExecutionTime = 343.252 s  ClockTime = 343 s

forceCoeffs forces write:
    Cm    = -105.96
    Cd    = -27.276
    Cl    = -174.518
    Cl(f) = -193.219
    Cl(r) = 18.7009

Time = 67s

DILUPBiCGStab:  Solving for Ux, Initial residual = 0.0201899, Final residual = 3.28932e-10, No Iterations 4
DILUPBiCGStab:  Solving for Uy, Initial residual = 0.0264622, Final residual = 9.54347e-09, No Iterations 3
DILUPBiCGStab:  Solving for Uz, Initial residual = 0.0249195, Final residual = 6.78913e-09, No Iterations 3
GAMG:  Solving for p, Initial residual = 0.215566, Final residual = 0.00903595, No Iterations 2
time step continuity errors : sum local = 0.961373, global = -0.137084, cumulative = 13.0266
DILUPBiCGStab:  Solving for omega, Initial residual = 0.29762, Final residual = 9.60766e-09, No Iterations 56
DILUPBiCGStab:  Solving for k, Initial residual = 0.0706943, Final residual = 3.55643e-09, No Iterations 60
ExecutionTime = 349.438 s  ClockTime = 349 s

forceCoeffs forces write:
    Cm    = -101.055
    Cd    = -24.2291
    Cl    = -168.643
    Cl(f) = -185.376
    Cl(r) = 16.7332

Time = 68s

DILUPBiCGStab:  Solving for Ux, Initial residual = 0.0184266, Final residual = 6.4443e-09, No Iterations 3
DILUPBiCGStab:  Solving for Uy, Initial residual = 0.024116, Final residual = 5.03328e-09, No Iterations 3
DILUPBiCGStab:  Solving for Uz, Initial residual = 0.0228184, Final residual = 4.61623e-09, No Iterations 3
GAMG:  Solving for p, Initial residual = 0.240011, Final residual = 0.00994963, No Iterations 2
time step continuity errors : sum local = 0.997077, global = -0.120004, cumulative = 12.9066
DILUPBiCGStab:  Solving for omega, Initial residual = 0.228887, Final residual = 9.41347e-09, No Iterations 50
DILUPBiCGStab:  Solving for k, Initial residual = 0.192763, Final residual = 4.67361e-09, No Iterations 48
ExecutionTime = 355.163 s  ClockTime = 355 s

forceCoeffs forces write:
    Cm    = -94.0488
    Cd    = -18.7187
    Cl    = -154.608
    Cl(f) = -171.353
    Cl(r) = 16.7447

Time = 69s

DILUPBiCGStab:  Solving for Ux, Initial residual = 0.0197343, Final residual = 2.77279e-09, No Iterations 3
DILUPBiCGStab:  Solving for Uy, Initial residual = 0.0257852, Final residual = 6.96035e-09, No Iterations 3
DILUPBiCGStab:  Solving for Uz, Initial residual = 0.0242062, Final residual = 4.02234e-09, No Iterations 3
GAMG:  Solving for p, Initial residual = 0.246363, Final residual = 0.0110295, No Iterations 2
time step continuity errors : sum local = 1.01712, global = -0.0574141, cumulative = 12.8492
DILUPBiCGStab:  Solving for omega, Initial residual = 0.316913, Final residual = 6.49833e-09, No Iterations 62
DILUPBiCGStab:  Solving for k, Initial residual = 0.0690036, Final residual = 9.30983e-09, No Iterations 55
ExecutionTime = 361.547 s  ClockTime = 361 s

forceCoeffs forces write:
    Cm    = -89.5564
    Cd    = -15.5905
    Cl    = -146.452
    Cl(f) = -162.782
    Cl(r) = 16.3304

Time = 70s

DILUPBiCGStab:  Solving for Ux, Initial residual = 0.0180136, Final residual = 6.20427e-10, No Iterations 4
DILUPBiCGStab:  Solving for Uy, Initial residual = 0.0236527, Final residual = 3.08753e-10, No Iterations 4
DILUPBiCGStab:  Solving for Uz, Initial residual = 0.0224037, Final residual = 2.36595e-09, No Iterations 3
GAMG:  Solving for p, Initial residual = 0.282924, Final residual = 0.0144289, No Iterations 2
time step continuity errors : sum local = 1.33624, global = 0.0321876, cumulative = 12.8814
DILUPBiCGStab:  Solving for omega, Initial residual = 0.301898, Final residual = 9.00899e-09, No Iterations 49
DILUPBiCGStab:  Solving for k, Initial residual = 0.201772, Final residual = 9.45046e-09, No Iterations 46
ExecutionTime = 366.894 s  ClockTime = 367 s

forceCoeffs forces write:
    Cm    = -84.8261
    Cd    = -10.7288
    Cl    = -136.019
    Cl(f) = -152.836
    Cl(r) = 16.8166

Time = 71s

DILUPBiCGStab:  Solving for Ux, Initial residual = 0.0192356, Final residual = 3.10605e-09, No Iterations 3
DILUPBiCGStab:  Solving for Uy, Initial residual = 0.0254342, Final residual = 7.55321e-09, No Iterations 3
DILUPBiCGStab:  Solving for Uz, Initial residual = 0.0236294, Final residual = 3.61958e-09, No Iterations 3
GAMG:  Solving for p, Initial residual = 0.270724, Final residual = 0.0152863, No Iterations 2
time step continuity errors : sum local = 1.33387, global = 0.0835981, cumulative = 12.965
DILUPBiCGStab:  Solving for omega, Initial residual = 0.335385, Final residual = 7.93855e-09, No Iterations 63
DILUPBiCGStab:  Solving for k, Initial residual = 0.0705693, Final residual = 9.84723e-09, No Iterations 56
ExecutionTime = 373.344 s  ClockTime = 373 s

forceCoeffs forces write:
    Cm    = -82.3947
    Cd    = -8.78236
    Cl    = -132.295
    Cl(f) = -148.542
    Cl(r) = 16.2472

Time = 72s

DILUPBiCGStab:  Solving for Ux, Initial residual = 0.0175595, Final residual = 2.12298e-09, No Iterations 3
DILUPBiCGStab:  Solving for Uy, Initial residual = 0.0235894, Final residual = 2.9845e-10, No Iterations 4
DILUPBiCGStab:  Solving for Uz, Initial residual = 0.0225112, Final residual = 2.56319e-09, No Iterations 3
GAMG:  Solving for p, Initial residual = 0.31869, Final residual = 0.0193674, No Iterations 2
time step continuity errors : sum local = 1.8026, global = 0.0849736, cumulative = 13.05
DILUPBiCGStab:  Solving for omega, Initial residual = 0.294189, Final residual = 9.51869e-09, No Iterations 50
DILUPBiCGStab:  Solving for k, Initial residual = 0.209397, Final residual = 6.53837e-09, No Iterations 45
bounding k, min: -379.87 max: 2.43989e+06 average: 5456.19
ExecutionTime = 378.712 s  ClockTime = 379 s

forceCoeffs forces write:
    Cm    = -81.4179
    Cd    = -5.92083
    Cl    = -134.897
    Cl(f) = -148.867
    Cl(r) = 13.9692

Time = 73s

DILUPBiCGStab:  Solving for Ux, Initial residual = 0.0188541, Final residual = 4.20634e-09, No Iterations 3
DILUPBiCGStab:  Solving for Uy, Initial residual = 0.0254881, Final residual = 5.3988e-09, No Iterations 3
DILUPBiCGStab:  Solving for Uz, Initial residual = 0.0237271, Final residual = 9.5844e-09, No Iterations 3
GAMG:  Solving for p, Initial residual = 0.295624, Final residual = 0.0201424, No Iterations 2
time step continuity errors : sum local = 1.78979, global = 0.124798, cumulative = 13.1748
DILUPBiCGStab:  Solving for omega, Initial residual = 0.351395, Final residual = 8.26602e-09, No Iterations 48
DILUPBiCGStab:  Solving for k, Initial residual = 0.0719742, Final residual = 9.84071e-09, No Iterations 56
ExecutionTime = 384.603 s  ClockTime = 384 s

forceCoeffs forces write:
    Cm    = -80.4664
    Cd    = -5.45676
    Cl    = -135.294
    Cl(f) = -148.114
    Cl(r) = 12.8192

Time = 74s

DILUPBiCGStab:  Solving for Ux, Initial residual = 0.0170078, Final residual = 2.23794e-09, No Iterations 3
DILUPBiCGStab:  Solving for Uy, Initial residual = 0.0233442, Final residual = 4.38803e-09, No Iterations 3
DILUPBiCGStab:  Solving for Uz, Initial residual = 0.022332, Final residual = 5.42388e-10, No Iterations 4
GAMG:  Solving for p, Initial residual = 0.247968, Final residual = 0.0116889, No Iterations 2
time step continuity errors : sum local = 1.08173, global = -0.0220804, cumulative = 13.1527
DILUPBiCGStab:  Solving for omega, Initial residual = 0.268156, Final residual = 3.46833e-09, No Iterations 54
DILUPBiCGStab:  Solving for k, Initial residual = 0.214957, Final residual = 8.46383e-09, No Iterations 44
ExecutionTime = 390.276 s  ClockTime = 390 s

forceCoeffs forces write:
    Cm    = -79.6063
    Cd    = -3.84562
    Cl    = -140.144
    Cl(f) = -149.678
    Cl(r) = 9.53423

Time = 75s

DILUPBiCGStab:  Solving for Ux, Initial residual = 0.0184554, Final residual = 2.63099e-09, No Iterations 3
DILUPBiCGStab:  Solving for Uy, Initial residual = 0.0257302, Final residual = 4.321e-09, No Iterations 3
DILUPBiCGStab:  Solving for Uz, Initial residual = 0.0242206, Final residual = 7.32559e-09, No Iterations 3
GAMG:  Solving for p, Initial residual = 0.239012, Final residual = 0.0121366, No Iterations 2
time step continuity errors : sum local = 1.03828, global = 0.0316879, cumulative = 13.1844
DILUPBiCGStab:  Solving for omega, Initial residual = 0.360127, Final residual = 9.77535e-09, No Iterations 47
DILUPBiCGStab:  Solving for k, Initial residual = 0.073384, Final residual = 9.44029e-09, No Iterations 60
ExecutionTime = 395.984 s  ClockTime = 396 s

forceCoeffs forces write:
    Cm    = -79.1729
    Cd    = -4.52839
    Cl    = -141.57
    Cl(f) = -149.958
    Cl(r) = 8.38803

Time = 76s

DILUPBiCGStab:  Solving for Ux, Initial residual = 0.0163433, Final residual = 2.52385e-09, No Iterations 3
DILUPBiCGStab:  Solving for Uy, Initial residual = 0.0229368, Final residual = 2.99317e-09, No Iterations 3
DILUPBiCGStab:  Solving for Uz, Initial residual = 0.0216427, Final residual = 2.24197e-09, No Iterations 3
GAMG:  Solving for p, Initial residual = 0.246052, Final residual = 0.0128821, No Iterations 2
time step continuity errors : sum local = 1.2139, global = -0.000117743, cumulative = 13.1843
DILUPBiCGStab:  Solving for omega, Initial residual = 0.229971, Final residual = 2.24826e-09, No Iterations 55
DILUPBiCGStab:  Solving for k, Initial residual = 0.220748, Final residual = 9.84824e-09, No Iterations 41
ExecutionTime = 401.259 s  ClockTime = 401 s

forceCoeffs forces write:
    Cm    = -79.6255
    Cd    = -4.07061
    Cl    = -145.186
    Cl(f) = -152.218
    Cl(r) = 7.03253

Time = 77s

DILUPBiCGStab:  Solving for Ux, Initial residual = 0.0178356, Final residual = 2.77905e-09, No Iterations 3
DILUPBiCGStab:  Solving for Uy, Initial residual = 0.0251149, Final residual = 3.55935e-09, No Iterations 3
DILUPBiCGStab:  Solving for Uz, Initial residual = 0.0230755, Final residual = 4.33076e-09, No Iterations 3
GAMG:  Solving for p, Initial residual = 0.244731, Final residual = 0.0144168, No Iterations 2
time step continuity errors : sum local = 1.23275, global = 0.0433095, cumulative = 13.2276
DILUPBiCGStab:  Solving for omega, Initial residual = 0.36726, Final residual = 9.10997e-09, No Iterations 41
DILUPBiCGStab:  Solving for k, Initial residual = 0.0761421, Final residual = 6.30662e-09, No Iterations 59
ExecutionTime = 406.763 s  ClockTime = 407 s

forceCoeffs forces write:
    Cm    = -77.3989
    Cd    = -5.14744
    Cl    = -141.748
    Cl(f) = -148.273
    Cl(r) = 6.52501

Time = 78s

DILUPBiCGStab:  Solving for Ux, Initial residual = 0.0157283, Final residual = 2.30119e-09, No Iterations 3
DILUPBiCGStab:  Solving for Uy, Initial residual = 0.0223717, Final residual = 2.86788e-09, No Iterations 3
DILUPBiCGStab:  Solving for Uz, Initial residual = 0.0210461, Final residual = 2.49066e-09, No Iterations 3
GAMG:  Solving for p, Initial residual = 0.219018, Final residual = 0.0103129, No Iterations 2
time step continuity errors : sum local = 0.893041, global = 0.0143078, cumulative = 13.2419
DILUPBiCGStab:  Solving for omega, Initial residual = 0.185397, Final residual = 8.96382e-09, No Iterations 51
DILUPBiCGStab:  Solving for k, Initial residual = 0.227141, Final residual = 3.03712e-09, No Iterations 42
ExecutionTime = 412.052 s  ClockTime = 412 s

forceCoeffs forces write:
    Cm    = -72.4676
    Cd    = -4.93581
    Cl    = -129.064
    Cl(f) = -136.999
    Cl(r) = 7.9358

Time = 79s

DILUPBiCGStab:  Solving for Ux, Initial residual = 0.0172678, Final residual = 2.14849e-09, No Iterations 3
DILUPBiCGStab:  Solving for Uy, Initial residual = 0.0247832, Final residual = 3.3338e-09, No Iterations 3
DILUPBiCGStab:  Solving for Uz, Initial residual = 0.0228194, Final residual = 3.63936e-09, No Iterations 3
GAMG:  Solving for p, Initial residual = 0.215893, Final residual = 0.0117155, No Iterations 2
time step continuity errors : sum local = 0.952783, global = 0.07684, cumulative = 13.3187
DILUPBiCGStab:  Solving for omega, Initial residual = 0.377264, Final residual = 9.16751e-09, No Iterations 42
DILUPBiCGStab:  Solving for k, Initial residual = 0.0807295, Final residual = 7.31893e-09, No Iterations 60
ExecutionTime = 417.652 s  ClockTime = 418 s

forceCoeffs forces write:
    Cm    = -69.2103
    Cd    = -5.39308
    Cl    = -123.231
    Cl(f) = -130.826
    Cl(r) = 7.59454

Time = 80s

DILUPBiCGStab:  Solving for Ux, Initial residual = 0.0149912, Final residual = 2.00128e-09, No Iterations 3
DILUPBiCGStab:  Solving for Uy, Initial residual = 0.0217016, Final residual = 2.84531e-09, No Iterations 3
DILUPBiCGStab:  Solving for Uz, Initial residual = 0.020106, Final residual = 2.73288e-09, No Iterations 3
GAMG:  Solving for p, Initial residual = 0.205997, Final residual = 0.0100044, No Iterations 2
time step continuity errors : sum local = 0.797411, global = 0.0121794, cumulative = 13.3309
DILUPBiCGStab:  Solving for omega, Initial residual = 0.138187, Final residual = 8.57301e-09, No Iterations 50
DILUPBiCGStab:  Solving for k, Initial residual = 0.228698, Final residual = 4.99397e-09, No Iterations 43
ExecutionTime = 422.998 s  ClockTime = 423 s

forceCoeffs forces write:
    Cm    = -65.4762
    Cd    = -3.37511
    Cl    = -113.902
    Cl(f) = -122.427
    Cl(r) = 8.52533

Time = 81s

DILUPBiCGStab:  Solving for Ux, Initial residual = 0.0168038, Final residual = 2.21808e-09, No Iterations 3
DILUPBiCGStab:  Solving for Uy, Initial residual = 0.0243418, Final residual = 3.49607e-09, No Iterations 3
DILUPBiCGStab:  Solving for Uz, Initial residual = 0.0222638, Final residual = 3.87517e-09, No Iterations 3
GAMG:  Solving for p, Initial residual = 0.202903, Final residual = 0.00999342, No Iterations 2
time step continuity errors : sum local = 0.781102, global = 0.0533719, cumulative = 13.3843
DILUPBiCGStab:  Solving for omega, Initial residual = 0.3812, Final residual = 7.24916e-09, No Iterations 41
DILUPBiCGStab:  Solving for k, Initial residual = 0.0833669, Final residual = 8.97422e-09, No Iterations 63
ExecutionTime = 428.702 s  ClockTime = 429 s

forceCoeffs forces write:
    Cm    = -62.1771
    Cd    = -3.17855
    Cl    = -108.182
    Cl(f) = -116.268
    Cl(r) = 8.086

Time = 82s

DILUPBiCGStab:  Solving for Ux, Initial residual = 0.0142952, Final residual = 1.51601e-09, No Iterations 3
DILUPBiCGStab:  Solving for Uy, Initial residual = 0.0211858, Final residual = 2.55457e-09, No Iterations 3
DILUPBiCGStab:  Solving for Uz, Initial residual = 0.0196042, Final residual = 3.9235e-09, No Iterations 3
GAMG:  Solving for p, Initial residual = 0.189607, Final residual = 0.00896966, No Iterations 2
time step continuity errors : sum local = 0.642197, global = 0.0297801, cumulative = 13.4141
DILUPBiCGStab:  Solving for omega, Initial residual = 0.134566, Final residual = 9.79404e-09, No Iterations 56
DILUPBiCGStab:  Solving for k, Initial residual = 0.232975, Final residual = 6.23952e-09, No Iterations 48
ExecutionTime = 434.362 s  ClockTime = 434 s

forceCoeffs forces write:
    Cm    = -57.9585
    Cd    = -0.548038
    Cl    = -99.5668
    Cl(f) = -107.742
    Cl(r) = 8.1751

Time = 83s

DILUPBiCGStab:  Solving for Ux, Initial residual = 0.0164172, Final residual = 4.31676e-09, No Iterations 3
DILUPBiCGStab:  Solving for Uy, Initial residual = 0.0240163, Final residual = 3.64251e-09, No Iterations 3
DILUPBiCGStab:  Solving for Uz, Initial residual = 0.0220378, Final residual = 4.78092e-09, No Iterations 3
GAMG:  Solving for p, Initial residual = 0.183068, Final residual = 0.00912423, No Iterations 2
time step continuity errors : sum local = 0.707904, global = 0.0809351, cumulative = 13.495
DILUPBiCGStab:  Solving for omega, Initial residual = 0.385609, Final residual = 6.97009e-09, No Iterations 39
DILUPBiCGStab:  Solving for k, Initial residual = 0.0842964, Final residual = 8.64791e-09, No Iterations 63
ExecutionTime = 440.144 s  ClockTime = 440 s

forceCoeffs forces write:
    Cm    = -55.759
    Cd    = -0.554684
    Cl    = -96.5127
    Cl(f) = -104.015
    Cl(r) = 7.50271

Time = 84s

DILUPBiCGStab:  Solving for Ux, Initial residual = 0.0136724, Final residual = 1.65827e-09, No Iterations 3
DILUPBiCGStab:  Solving for Uy, Initial residual = 0.0207199, Final residual = 2.50001e-09, No Iterations 3
DILUPBiCGStab:  Solving for Uz, Initial residual = 0.0190604, Final residual = 4.68729e-09, No Iterations 3
GAMG:  Solving for p, Initial residual = 0.174225, Final residual = 0.00854925, No Iterations 2
time step continuity errors : sum local = 0.594123, global = 0.0647091, cumulative = 13.5597
DILUPBiCGStab:  Solving for omega, Initial residual = 0.12663, Final residual = 9.0322e-09, No Iterations 58
DILUPBiCGStab:  Solving for k, Initial residual = 0.234103, Final residual = 9.08469e-09, No Iterations 41
ExecutionTime = 446.643 s  ClockTime = 447 s

forceCoeffs forces write:
    Cm    = -53.9918
    Cd    = 1.34009
    Cl    = -93.7291
    Cl(f) = -100.856
    Cl(r) = 7.12719

Time = 85s

DILUPBiCGStab:  Solving for Ux, Initial residual = 0.0159348, Final residual = 1.28557e-09, No Iterations 4
DILUPBiCGStab:  Solving for Uy, Initial residual = 0.0237221, Final residual = 3.61624e-09, No Iterations 3
DILUPBiCGStab:  Solving for Uz, Initial residual = 0.0216735, Final residual = 6.60798e-09, No Iterations 3
GAMG:  Solving for p, Initial residual = 0.173172, Final residual = 0.00832071, No Iterations 2
time step continuity errors : sum local = 0.656233, global = 0.0993945, cumulative = 13.6591
DILUPBiCGStab:  Solving for omega, Initial residual = 0.390191, Final residual = 6.45365e-09, No Iterations 40
DILUPBiCGStab:  Solving for k, Initial residual = 0.0850843, Final residual = 4.92118e-09, No Iterations 65
ExecutionTime = 452.472 s  ClockTime = 452 s

forceCoeffs forces write:
    Cm    = -51.835
    Cd    = 0.69424
    Cl    = -90.8568
    Cl(f) = -97.2634
    Cl(r) = 6.40656

Time = 86s

DILUPBiCGStab:  Solving for Ux, Initial residual = 0.0131213, Final residual = 1.20971e-09, No Iterations 3
DILUPBiCGStab:  Solving for Uy, Initial residual = 0.020419, Final residual = 2.18683e-09, No Iterations 3
DILUPBiCGStab:  Solving for Uz, Initial residual = 0.0187223, Final residual = 4.06863e-09, No Iterations 3
GAMG:  Solving for p, Initial residual = 0.164224, Final residual = 0.00811965, No Iterations 2
time step continuity errors : sum local = 0.55796, global = 0.0772116, cumulative = 13.7363
DILUPBiCGStab:  Solving for omega, Initial residual = 0.122468, Final residual = 8.87209e-09, No Iterations 57
DILUPBiCGStab:  Solving for k, Initial residual = 0.233298, Final residual = 2.76429e-09, No Iterations 45
ExecutionTime = 458.131 s  ClockTime = 458 s

forceCoeffs forces write:
    Cm    = -49.172
    Cd    = 1.97769
    Cl    = -85.7851
    Cl(f) = -92.0645
    Cl(r) = 6.27942

Time = 87s

DILUPBiCGStab:  Solving for Ux, Initial residual = 0.0156118, Final residual = 1.09128e-09, No Iterations 4
DILUPBiCGStab:  Solving for Uy, Initial residual = 0.0235742, Final residual = 3.56637e-09, No Iterations 3
DILUPBiCGStab:  Solving for Uz, Initial residual = 0.0214235, Final residual = 7.24015e-09, No Iterations 3
GAMG:  Solving for p, Initial residual = 0.165148, Final residual = 0.00801588, No Iterations 2
time step continuity errors : sum local = 0.671681, global = 0.0699779, cumulative = 13.8063
DILUPBiCGStab:  Solving for omega, Initial residual = 0.39067, Final residual = 8.82641e-09, No Iterations 38
DILUPBiCGStab:  Solving for k, Initial residual = 0.0849423, Final residual = 7.01246e-09, No Iterations 58
ExecutionTime = 463.434 s  ClockTime = 463 s

forceCoeffs forces write:
    Cm    = -47.5062
    Cd    = 0.908826
    Cl    = -83.432
    Cl(f) = -89.2222
    Cl(r) = 5.79023

Time = 88s

[...]
ExecutionTime = 2582.22 s  ClockTime = 2584 s

forceCoeffs forces write:
    Cm    = 0.200949
    Cd    = 1.52517
    Cl    = 1.10091
    Cl(f) = 0.751402
    Cl(r) = 0.349505

Time = 483s

DILUPBiCGStab:  Solving for Ux, Initial residual = 0.00186564, Final residual = 5.58361e-09, No Iterations 3
DILUPBiCGStab:  Solving for Uy, Initial residual = 0.0075237, Final residual = 1.56279e-09, No Iterations 3
DILUPBiCGStab:  Solving for Uz, Initial residual = 0.00842687, Final residual = 9.68735e-09, No Iterations 3
GAMG:  Solving for p, Initial residual = 0.132477, Final residual = 0.00508324, No Iterations 2
time step continuity errors : sum local = 0.0161845, global = 0.00022036, cumulative = 15.4026
DILUPBiCGStab:  Solving for omega, Initial residual = 0.262812, Final residual = 5.7201e-09, No Iterations 52
DILUPBiCGStab:  Solving for k, Initial residual = 0.0281489, Final residual = 9.39807e-09, No Iterations 32
ExecutionTime = 2587.52 s  ClockTime = 2589 s

forceCoeffs forces write:
    Cm    = 0.193199
    Cd    = 1.4251
    Cl    = 1.08723
    Cl(f) = 0.736815
    Cl(r) = 0.350417

Time = 484s

DILUPBiCGStab:  Solving for Ux, Initial residual = 0.00261749, Final residual = 1.59192e-09, No Iterations 3
DILUPBiCGStab:  Solving for Uy, Initial residual = 0.00837793, Final residual = 5.40529e-09, No Iterations 3
DILUPBiCGStab:  Solving for Uz, Initial residual = 0.00932646, Final residual = 5.01223e-09, No Iterations 3
GAMG:  Solving for p, Initial residual = 0.0970873, Final residual = 0.00528917, No Iterations 2
time step continuity errors : sum local = 0.0156197, global = -1.02306e-06, cumulative = 15.4026
DILUPBiCGStab:  Solving for omega, Initial residual = 0.0729963, Final residual = 4.69389e-09, No Iterations 52
DILUPBiCGStab:  Solving for k, Initial residual = 0.088842, Final residual = 5.30441e-09, No Iterations 43
bounding k, min: -2.49517 max: 10097.1 average: 17.6685
ExecutionTime = 2593.18 s  ClockTime = 2595 s

forceCoeffs forces write:
    Cm    = 0.129858
    Cd    = 0.886689
    Cl    = 0.928107
    Cl(f) = 0.593912
    Cl(r) = 0.334195

Time = 485s

DILUPBiCGStab:  Solving for Ux, Initial residual = 0.00181644, Final residual = 4.35441e-09, No Iterations 3
DILUPBiCGStab:  Solving for Uy, Initial residual = 0.00746452, Final residual = 1.19533e-09, No Iterations 3
DILUPBiCGStab:  Solving for Uz, Initial residual = 0.00847292, Final residual = 2.7069e-09, No Iterations 3
GAMG:  Solving for p, Initial residual = 0.128991, Final residual = 0.00492774, No Iterations 2
time step continuity errors : sum local = 0.0156893, global = 7.44236e-05, cumulative = 15.4027
DILUPBiCGStab:  Solving for omega, Initial residual = 0.287888, Final residual = 8.56526e-09, No Iterations 49
DILUPBiCGStab:  Solving for k, Initial residual = 0.0273973, Final residual = 5.61793e-09, No Iterations 33
bounding k, min: -7.19286 max: 9723.19 average: 20.172
ExecutionTime = 2598.39 s  ClockTime = 2600 s

forceCoeffs forces write:
    Cm    = 0.138783
    Cd    = 0.957157
    Cl    = 0.986491
    Cl(f) = 0.632029
    Cl(r) = 0.354462

Time = 486s

DILUPBiCGStab:  Solving for Ux, Initial residual = 0.00270467, Final residual = 1.63527e-09, No Iterations 3
DILUPBiCGStab:  Solving for Uy, Initial residual = 0.00839215, Final residual = 4.99157e-09, No Iterations 3
DILUPBiCGStab:  Solving for Uz, Initial residual = 0.00916755, Final residual = 4.70102e-09, No Iterations 3
GAMG:  Solving for p, Initial residual = 0.0952946, Final residual = 0.00521852, No Iterations 2
time step continuity errors : sum local = 0.0153063, global = -0.000205081, cumulative = 15.4025
DILUPBiCGStab:  Solving for omega, Initial residual = 0.0761564, Final residual = 4.56812e-09, No Iterations 53
DILUPBiCGStab:  Solving for k, Initial residual = 0.0843135, Final residual = 1.09695e-09, No Iterations 46
bounding k, min: -1.32945 max: 10100.3 average: 17.5173
ExecutionTime = 2604.87 s  ClockTime = 2607 s

forceCoeffs forces write:
    Cm    = 0.208524
    Cd    = 1.47226
    Cl    = 1.14641
    Cl(f) = 0.781729
    Cl(r) = 0.364682

Time = 487s

DILUPBiCGStab:  Solving for Ux, Initial residual = 0.0018274, Final residual = 5.19113e-09, No Iterations 3
DILUPBiCGStab:  Solving for Uy, Initial residual = 0.00735915, Final residual = 1.5823e-09, No Iterations 3
DILUPBiCGStab:  Solving for Uz, Initial residual = 0.00830458, Final residual = 3.03417e-09, No Iterations 3
GAMG:  Solving for p, Initial residual = 0.131387, Final residual = 0.00512158, No Iterations 2
time step continuity errors : sum local = 0.0163007, global = 0.000299912, cumulative = 15.4028
DILUPBiCGStab:  Solving for omega, Initial residual = 0.254866, Final residual = 9.91535e-09, No Iterations 54
DILUPBiCGStab:  Solving for k, Initial residual = 0.0272383, Final residual = 9.59006e-09, No Iterations 32
ExecutionTime = 2610.24 s  ClockTime = 2612 s

forceCoeffs forces write:
    Cm    = 0.202073
    Cd    = 1.38432
    Cl    = 1.16172
    Cl(f) = 0.782931
    Cl(r) = 0.378785

Time = 488s

DILUPBiCGStab:  Solving for Ux, Initial residual = 0.00249041, Final residual = 1.51463e-09, No Iterations 3
DILUPBiCGStab:  Solving for Uy, Initial residual = 0.00786733, Final residual = 5.31634e-09, No Iterations 3
DILUPBiCGStab:  Solving for Uz, Initial residual = 0.00867553, Final residual = 4.8474e-09, No Iterations 3
GAMG:  Solving for p, Initial residual = 0.0951681, Final residual = 0.00544855, No Iterations 2
time step continuity errors : sum local = 0.0160407, global = 4.1013e-05, cumulative = 15.4028
DILUPBiCGStab:  Solving for omega, Initial residual = 0.0714867, Final residual = 9.26245e-09, No Iterations 46
DILUPBiCGStab:  Solving for k, Initial residual = 0.0814022, Final residual = 9.5935e-09, No Iterations 41
bounding k, min: -1.4856 max: 10103.1 average: 17.5661
ExecutionTime = 2615.59 s  ClockTime = 2618 s

forceCoeffs forces write:
    Cm    = 0.122963
    Cd    = 0.904035
    Cl    = 1.09648
    Cl(f) = 0.671205
    Cl(r) = 0.42528

Time = 489s

DILUPBiCGStab:  Solving for Ux, Initial residual = 0.00174686, Final residual = 1.92826e-09, No Iterations 3
DILUPBiCGStab:  Solving for Uy, Initial residual = 0.00690606, Final residual = 1.60279e-09, No Iterations 3
DILUPBiCGStab:  Solving for Uz, Initial residual = 0.00775719, Final residual = 2.55024e-09, No Iterations 3
GAMG:  Solving for p, Initial residual = 0.123103, Final residual = 0.00461456, No Iterations 2
time step continuity errors : sum local = 0.0143901, global = 0.000115613, cumulative = 15.403
DILUPBiCGStab:  Solving for omega, Initial residual = 0.215833, Final residual = 1.50549e-09, No Iterations 56
DILUPBiCGStab:  Solving for k, Initial residual = 0.0267131, Final residual = 3.18582e-09, No Iterations 33
ExecutionTime = 2621.1 s  ClockTime = 2623 s

forceCoeffs forces write:
    Cm    = 0.12884
    Cd    = 0.985933
    Cl    = 1.0822
    Cl(f) = 0.669942
    Cl(r) = 0.412261

Time = 490s

DILUPBiCGStab:  Solving for Ux, Initial residual = 0.00238407, Final residual = 1.46373e-09, No Iterations 3
DILUPBiCGStab:  Solving for Uy, Initial residual = 0.00726286, Final residual = 4.73372e-09, No Iterations 3
DILUPBiCGStab:  Solving for Uz, Initial residual = 0.00802541, Final residual = 4.75393e-09, No Iterations 3
GAMG:  Solving for p, Initial residual = 0.0877111, Final residual = 0.00498207, No Iterations 2
time step continuity errors : sum local = 0.0143859, global = -7.31597e-05, cumulative = 15.4029
DILUPBiCGStab:  Solving for omega, Initial residual = 0.0703695, Final residual = 2.01645e-09, No Iterations 52
DILUPBiCGStab:  Solving for k, Initial residual = 0.0764731, Final residual = 1.46794e-09, No Iterations 46
ExecutionTime = 2627.03 s  ClockTime = 2629 s

forceCoeffs forces write:
    Cm    = 0.206158
    Cd    = 1.50268
    Cl    = 1.1061
    Cl(f) = 0.759209
    Cl(r) = 0.346893

Time = 491s

DILUPBiCGStab:  Solving for Ux, Initial residual = 0.00177616, Final residual = 4.89742e-09, No Iterations 3
DILUPBiCGStab:  Solving for Uy, Initial residual = 0.00647463, Final residual = 1.86322e-09, No Iterations 3
DILUPBiCGStab:  Solving for Uz, Initial residual = 0.00734312, Final residual = 2.22722e-09, No Iterations 3
GAMG:  Solving for p, Initial residual = 0.115973, Final residual = 0.00437922, No Iterations 2
time step continuity errors : sum local = 0.0137693, global = 0.000102557, cumulative = 15.403
DILUPBiCGStab:  Solving for omega, Initial residual = 0.198753, Final residual = 1.24368e-09, No Iterations 57
DILUPBiCGStab:  Solving for k, Initial residual = 0.0270939, Final residual = 7.914e-09, No Iterations 32
ExecutionTime = 2632.83 s  ClockTime = 2635 s

forceCoeffs forces write:
    Cm    = 0.200327
    Cd    = 1.39463
    Cl    = 1.16588
    Cl(f) = 0.783267
    Cl(r) = 0.382614

Time = 492s

DILUPBiCGStab:  Solving for Ux, Initial residual = 0.00229843, Final residual = 1.40757e-09, No Iterations 3
DILUPBiCGStab:  Solving for Uy, Initial residual = 0.00706697, Final residual = 4.61686e-09, No Iterations 3
DILUPBiCGStab:  Solving for Uz, Initial residual = 0.00773128, Final residual = 4.79478e-09, No Iterations 3
GAMG:  Solving for p, Initial residual = 0.083467, Final residual = 0.00452513, No Iterations 2
time step continuity errors : sum local = 0.0132866, global = -0.000232946, cumulative = 15.4028
DILUPBiCGStab:  Solving for omega, Initial residual = 0.0680598, Final residual = 8.58526e-09, No Iterations 48
DILUPBiCGStab:  Solving for k, Initial residual = 0.0772808, Final residual = 9.99276e-09, No Iterations 42
ExecutionTime = 2638.64 s  ClockTime = 2641 s

forceCoeffs forces write:
    Cm    = 0.124218
    Cd    = 0.838265
    Cl    = 1.16421
    Cl(f) = 0.706322
    Cl(r) = 0.457886

Time = 493s

DILUPBiCGStab:  Solving for Ux, Initial residual = 0.00176438, Final residual = 4.21971e-09, No Iterations 3
DILUPBiCGStab:  Solving for Uy, Initial residual = 0.00648354, Final residual = 3.90605e-09, No Iterations 3
DILUPBiCGStab:  Solving for Uz, Initial residual = 0.00724314, Final residual = 2.78041e-09, No Iterations 3
GAMG:  Solving for p, Initial residual = 0.116336, Final residual = 0.00424709, No Iterations 2
time step continuity errors : sum local = 0.0131543, global = -1.66271e-05, cumulative = 15.4027
DILUPBiCGStab:  Solving for omega, Initial residual = 0.192217, Final residual = 9.25372e-09, No Iterations 53
DILUPBiCGStab:  Solving for k, Initial residual = 0.0265359, Final residual = 8.71035e-09, No Iterations 32
ExecutionTime = 2644 s  ClockTime = 2646 s

forceCoeffs forces write:
    Cm    = 0.130443
    Cd    = 0.936063
    Cl    = 1.14411
    Cl(f) = 0.702499
    Cl(r) = 0.441612

Time = 494s

DILUPBiCGStab:  Solving for Ux, Initial residual = 0.00230087, Final residual = 1.41424e-09, No Iterations 3
DILUPBiCGStab:  Solving for Uy, Initial residual = 0.00707885, Final residual = 4.77655e-09, No Iterations 3
DILUPBiCGStab:  Solving for Uz, Initial residual = 0.00749131, Final residual = 4.65794e-09, No Iterations 3
GAMG:  Solving for p, Initial residual = 0.0839266, Final residual = 0.00463369, No Iterations 2
time step continuity errors : sum local = 0.0133246, global = -0.000200005, cumulative = 15.4025
DILUPBiCGStab:  Solving for omega, Initial residual = 0.0666038, Final residual = 9.3486e-09, No Iterations 50
DILUPBiCGStab:  Solving for k, Initial residual = 0.0732499, Final residual = 8.76733e-10, No Iterations 46
ExecutionTime = 2649.74 s  ClockTime = 2652 s

forceCoeffs forces write:
    Cm    = 0.192903
    Cd    = 1.52604
    Cl    = 1.16429
    Cl(f) = 0.775047
    Cl(r) = 0.389242

Time = 495s

DILUPBiCGStab:  Solving for Ux, Initial residual = 0.00171229, Final residual = 4.47866e-09, No Iterations 3
DILUPBiCGStab:  Solving for Uy, Initial residual = 0.0061781, Final residual = 1.36914e-09, No Iterations 3
DILUPBiCGStab:  Solving for Uz, Initial residual = 0.00692422, Final residual = 1.7091e-09, No Iterations 3
GAMG:  Solving for p, Initial residual = 0.112493, Final residual = 0.00406507, No Iterations 2
time step continuity errors : sum local = 0.0125628, global = 7.96895e-06, cumulative = 15.4025
DILUPBiCGStab:  Solving for omega, Initial residual = 0.174696, Final residual = 7.79613e-10, No Iterations 56
DILUPBiCGStab:  Solving for k, Initial residual = 0.0267695, Final residual = 9.73695e-09, No Iterations 31
ExecutionTime = 2655.57 s  ClockTime = 2658 s

forceCoeffs forces write:
    Cm    = 0.188481
    Cd    = 1.42139
    Cl    = 1.18455
    Cl(f) = 0.780758
    Cl(r) = 0.403796

Time = 496s

DILUPBiCGStab:  Solving for Ux, Initial residual = 0.00216471, Final residual = 1.3374e-09, No Iterations 3
DILUPBiCGStab:  Solving for Uy, Initial residual = 0.00654972, Final residual = 4.58824e-09, No Iterations 3
DILUPBiCGStab:  Solving for Uz, Initial residual = 0.00728085, Final residual = 4.86225e-09, No Iterations 3
GAMG:  Solving for p, Initial residual = 0.0803371, Final residual = 0.00423972, No Iterations 2
time step continuity errors : sum local = 0.0123141, global = -0.000243956, cumulative = 15.4023
DILUPBiCGStab:  Solving for omega, Initial residual = 0.0679906, Final residual = 9.5047e-09, No Iterations 52
DILUPBiCGStab:  Solving for k, Initial residual = 0.0739655, Final residual = 6.00359e-09, No Iterations 43
ExecutionTime = 2661.41 s  ClockTime = 2663 s

forceCoeffs forces write:
    Cm    = 0.133049
    Cd    = 0.875264
    Cl    = 1.17406
    Cl(f) = 0.720081
    Cl(r) = 0.453983

Time = 497s

DILUPBiCGStab:  Solving for Ux, Initial residual = 0.0017004, Final residual = 3.84066e-09, No Iterations 3
DILUPBiCGStab:  Solving for Uy, Initial residual = 0.00602047, Final residual = 1.502e-09, No Iterations 3
DILUPBiCGStab:  Solving for Uz, Initial residual = 0.00662435, Final residual = 5.72491e-09, No Iterations 3
GAMG:  Solving for p, Initial residual = 0.104422, Final residual = 0.00365776, No Iterations 2
time step continuity errors : sum local = 0.0112146, global = -0.00013221, cumulative = 15.4022
DILUPBiCGStab:  Solving for omega, Initial residual = 0.18694, Final residual = 9.86592e-09, No Iterations 53
DILUPBiCGStab:  Solving for k, Initial residual = 0.0266351, Final residual = 4.55117e-09, No Iterations 35
ExecutionTime = 2666.97 s  ClockTime = 2669 s

forceCoeffs forces write:
    Cm    = 0.145691
    Cd    = 0.958373
    Cl    = 1.18248
    Cl(f) = 0.736929
    Cl(r) = 0.445547

Time = 498s

DILUPBiCGStab:  Solving for Ux, Initial residual = 0.00233165, Final residual = 1.40403e-09, No Iterations 3
DILUPBiCGStab:  Solving for Uy, Initial residual = 0.00720622, Final residual = 4.69531e-09, No Iterations 3
DILUPBiCGStab:  Solving for Uz, Initial residual = 0.00748162, Final residual = 4.81425e-09, No Iterations 3
GAMG:  Solving for p, Initial residual = 0.0757418, Final residual = 0.00402574, No Iterations 2
time step continuity errors : sum local = 0.0115358, global = -0.000365961, cumulative = 15.4018
DILUPBiCGStab:  Solving for omega, Initial residual = 0.0679314, Final residual = 9.67568e-09, No Iterations 50
DILUPBiCGStab:  Solving for k, Initial residual = 0.0747156, Final residual = 2.42066e-09, No Iterations 43
ExecutionTime = 2673.5 s  ClockTime = 2675 s

forceCoeffs forces write:
    Cm    = 0.211607
    Cd    = 1.47642
    Cl    = 1.16722
    Cl(f) = 0.795218
    Cl(r) = 0.372004

Time = 499s

DILUPBiCGStab:  Solving for Ux, Initial residual = 0.00171443, Final residual = 4.08698e-09, No Iterations 3
DILUPBiCGStab:  Solving for Uy, Initial residual = 0.00620297, Final residual = 4.37865e-09, No Iterations 3
DILUPBiCGStab:  Solving for Uz, Initial residual = 0.00669413, Final residual = 1.52174e-09, No Iterations 3
GAMG:  Solving for p, Initial residual = 0.111813, Final residual = 0.00409028, No Iterations 2
time step continuity errors : sum local = 0.0127054, global = -0.000115469, cumulative = 15.4017
DILUPBiCGStab:  Solving for omega, Initial residual = 0.197356, Final residual = 3.26996e-09, No Iterations 55
DILUPBiCGStab:  Solving for k, Initial residual = 0.0269544, Final residual = 9.88218e-09, No Iterations 32
ExecutionTime = 2679.77 s  ClockTime = 2682 s

forceCoeffs forces write:
    Cm    = 0.197326
    Cd    = 1.37924
    Cl    = 1.16935
    Cl(f) = 0.782001
    Cl(r) = 0.387348

Time = 500s

DILUPBiCGStab:  Solving for Ux, Initial residual = 0.00225844, Final residual = 1.36384e-09, No Iterations 3
DILUPBiCGStab:  Solving for Uy, Initial residual = 0.00717855, Final residual = 5.29977e-09, No Iterations 3
DILUPBiCGStab:  Solving for Uz, Initial residual = 0.00771221, Final residual = 4.7204e-09, No Iterations 3
GAMG:  Solving for p, Initial residual = 0.0800379, Final residual = 0.00429076, No Iterations 2
time step continuity errors : sum local = 0.0124997, global = -0.000359228, cumulative = 15.4013
DILUPBiCGStab:  Solving for omega, Initial residual = 0.0677347, Final residual = 9.43104e-09, No Iterations 54
DILUPBiCGStab:  Solving for k, Initial residual = 0.0778466, Final residual = 2.83324e-09, No Iterations 43
ExecutionTime = 2686.37 s  ClockTime = 2688 s

forceCoeffs forces write:
    Cm    = 0.113495
    Cd    = 0.882684
    Cl    = 1.13562
    Cl(f) = 0.681306
    Cl(r) = 0.454317

Time = 501s

DILUPBiCGStab:  Solving for Ux, Initial residual = 0.0017499, Final residual = 9.92146e-09, No Iterations 3
DILUPBiCGStab:  Solving for Uy, Initial residual = 0.00629943, Final residual = 1.91006e-09, No Iterations 3
DILUPBiCGStab:  Solving for Uz, Initial residual = 0.00692695, Final residual = 1.36264e-09, No Iterations 3
GAMG:  Solving for p, Initial residual = 0.107748, Final residual = 0.00383241, No Iterations 2
time step continuity errors : sum local = 0.0117316, global = -9.07976e-05, cumulative = 15.4012
DILUPBiCGStab:  Solving for omega, Initial residual = 0.219951, Final residual = 2.68947e-09, No Iterations 53
DILUPBiCGStab:  Solving for k, Initial residual = 0.0265673, Final residual = 8.72866e-09, No Iterations 34
ExecutionTime = 2691.81 s  ClockTime = 2694 s

forceCoeffs forces write:
    Cm    = 0.129297
    Cd    = 0.973736
    Cl    = 1.11841
    Cl(f) = 0.688503
    Cl(r) = 0.42991

Time = 502s

DILUPBiCGStab:  Solving for Ux, Initial residual = 0.00245647, Final residual = 1.44275e-09, No Iterations 3
DILUPBiCGStab:  Solving for Uy, Initial residual = 0.00761574, Final residual = 4.93354e-09, No Iterations 3
DILUPBiCGStab:  Solving for Uz, Initial residual = 0.00815081, Final residual = 5.02689e-09, No Iterations 3
GAMG:  Solving for p, Initial residual = 0.078058, Final residual = 0.0043907, No Iterations 2
time step continuity errors : sum local = 0.0125225, global = -0.000351248, cumulative = 15.4009
DILUPBiCGStab:  Solving for omega, Initial residual = 0.0681308, Final residual = 5.37703e-09, No Iterations 55
DILUPBiCGStab:  Solving for k, Initial residual = 0.0796719, Final residual = 4.34448e-09, No Iterations 43
ExecutionTime = 2697.83 s  ClockTime = 2700 s

forceCoeffs forces write:
    Cm    = 0.215848
    Cd    = 1.52813
    Cl    = 1.1466
    Cl(f) = 0.789148
    Cl(r) = 0.357452

Time = 503s

DILUPBiCGStab:  Solving for Ux, Initial residual = 0.00183781, Final residual = 1.82604e-09, No Iterations 3
DILUPBiCGStab:  Solving for Uy, Initial residual = 0.0066276, Final residual = 1.31464e-09, No Iterations 3
DILUPBiCGStab:  Solving for Uz, Initial residual = 0.00720488, Final residual = 2.05538e-09, No Iterations 3
GAMG:  Solving for p, Initial residual = 0.119372, Final residual = 0.00445234, No Iterations 2
time step continuity errors : sum local = 0.0139411, global = -0.000213372, cumulative = 15.4007
DILUPBiCGStab:  Solving for omega, Initial residual = 0.234353, Final residual = 9.85975e-09, No Iterations 53
DILUPBiCGStab:  Solving for k, Initial residual = 0.0268849, Final residual = 5.73512e-09, No Iterations 34
ExecutionTime = 2703.42 s  ClockTime = 2705 s

streamlines streamlines write:
    Seeded 20 particles
    Sampled 9187 locations
forceCoeffs forces write:
    Cm    = 0.200317
    Cd    = 1.40227
    Cl    = 1.16178
    Cl(f) = 0.781208
    Cl(r) = 0.380574

End

