/*---------------------------------------------------------------------------*\
  =========                 |
  \\      /  F ield         | OpenFOAM: The Open Source CFD Toolbox
   \\    /   O peration     | Website:  https://openfoam.org
    \\  /    A nd           | Version:  12
     \\/     M anipulation  |
\*---------------------------------------------------------------------------*/
Build  : 12-8b1612fe08a0
Exec   : foamRun
Date   : Sep 10 2024
Time   : 16:02:51
Host   : "DESKTOP-HK6CJNO"
PID    : 224507
I/O    : uncollated
Case   : /home/weizhe/OpenFOAM/weizhe-12/run/ahmed/results/1e-05_10_kOmegaSST
nProcs : 1
sigFpe : Enabling floating point exception trapping (FOAM_SIGFPE).
fileModificationChecking : Monitoring run-time modified files using timeStampMaster (fileModificationSkew 10)
allowSystemOperations : Allowing user-supplied system call operations

// * * * * * * * * * * * * * * * * * * * * * * * * * * * * * * * * * * * * * //
Create time

Create mesh for time = 3

Selecting solver incompressibleFluid
Selecting viscosity model constant
Selecting turbulence model type RAS
Selecting RAS turbulence model kOmegaSST
RAS
{
    model           kOmegaSST;
    turbulence      on;
    printCoeffs     on;
    alphaK1         0.85;
    alphaK2         1;
    alphaOmega1     0.5;
    alphaOmega2     0.856;
    gamma1          0.555556;
    gamma2          0.44;
    beta1           0.075;
    beta2           0.0828;
    betaStar        0.09;
    a1              0.31;
    b1              1;
    c1              10;
    F3              false;
}

No MRF models present

Selecting patchDistMethod meshWave

SIMPLE: No convergence criteria found


SIMPLE: Operating solver in steady-state mode with 1 outer corrector
SIMPLE: Operating solver in SIMPLE mode



Starting time loop

Reading surface description:
    yNormal

streamlines streamlines:
    automatic track length specified through number of sub cycles : 5

forcesBase forces:
    Not including porosity effects
forces forces:
    Not including porosity effects
forceCoeffs forces:
    Not including porosity effects
streamlines streamlines write:
    Seeded 20 particles
    Sampled 6040 locations
forceCoeffs forces write:
    Cm    = 0.000969739
    Cd    = 0.00555104
    Cl    = 3.825e-05
    Cl(f) = 0.000988864
    Cl(r) = -0.000950614

Time = 4s

DILUPBiCGStab:  Solving for Ux, Initial residual = 1, Final residual = 5.81083e-09, No Iterations 5
DILUPBiCGStab:  Solving for Uy, Initial residual = 1, Final residual = 8.90679e-09, No Iterations 5
DILUPBiCGStab:  Solving for Uz, Initial residual = 1, Final residual = 8.62753e-10, No Iterations 5
GAMG:  Solving for p, Initial residual = 1, Final residual = 0.0735133, No Iterations 5
time step continuity errors : sum local = 0.00666415, global = -0.00229365, cumulative = -0.00229365
DILUPBiCGStab:  Solving for omega, Initial residual = 0.864304, Final residual = 3.42797e-09, No Iterations 46
DILUPBiCGStab:  Solving for k, Initial residual = 1, Final residual = 9.7399e-09, No Iterations 41
ExecutionTime = 14.3953 s  ClockTime = 15 s

forceCoeffs forces write:
    Cm    = 0.116874
    Cd    = 0.479499
    Cl    = 0.101484
    Cl(f) = 0.167616
    Cl(r) = -0.0661322

Time = 5s

DILUPBiCGStab:  Solving for Ux, Initial residual = 0.0566748, Final residual = 9.55347e-09, No Iterations 3
DILUPBiCGStab:  Solving for Uy, Initial residual = 0.0872787, Final residual = 9.63465e-09, No Iterations 3
DILUPBiCGStab:  Solving for Uz, Initial residual = 0.0889087, Final residual = 9.0946e-09, No Iterations 3
GAMG:  Solving for p, Initial residual = 0.903402, Final residual = 0.0407729, No Iterations 3
time step continuity errors : sum local = 0.0157417, global = 0.0063771, cumulative = 0.00408345
DILUPBiCGStab:  Solving for omega, Initial residual = 0.57846, Final residual = 2.97496e-09, No Iterations 88
DILUPBiCGStab:  Solving for k, Initial residual = 0.516643, Final residual = 2.15943e-09, No Iterations 87
ExecutionTime = 28.019 s  ClockTime = 28 s

forceCoeffs forces write:
    Cm    = 0.170928
    Cd    = 0.806588
    Cl    = 0.249922
    Cl(f) = 0.295889
    Cl(r) = -0.045967

Time = 6s

DILUPBiCGStab:  Solving for Ux, Initial residual = 0.399024, Final residual = 1.49923e-10, No Iterations 5
DILUPBiCGStab:  Solving for Uy, Initial residual = 0.587219, Final residual = 2.43773e-09, No Iterations 4
DILUPBiCGStab:  Solving for Uz, Initial residual = 0.60186, Final residual = 7.76252e-09, No Iterations 4
GAMG:  Solving for p, Initial residual = 0.496525, Final residual = 0.0373529, No Iterations 3
time step continuity errors : sum local = 0.0572855, global = -0.0236899, cumulative = -0.0196064
DILUPBiCGStab:  Solving for omega, Initial residual = 0.10018, Final residual = 9.85027e-09, No Iterations 24
DILUPBiCGStab:  Solving for k, Initial residual = 0.355499, Final residual = 8.00247e-09, No Iterations 33
ExecutionTime = 33.2875 s  ClockTime = 33 s

forceCoeffs forces write:
    Cm    = 0.0950247
    Cd    = 0.443828
    Cl    = 0.137862
    Cl(f) = 0.163956
    Cl(r) = -0.0260935

Time = 7s

DILUPBiCGStab:  Solving for Ux, Initial residual = 0.122166, Final residual = 1.21788e-09, No Iterations 4
DILUPBiCGStab:  Solving for Uy, Initial residual = 0.160234, Final residual = 1.94528e-11, No Iterations 5
DILUPBiCGStab:  Solving for Uz, Initial residual = 0.162826, Final residual = 2.7007e-09, No Iterations 4
GAMG:  Solving for p, Initial residual = 0.509417, Final residual = 0.0383143, No Iterations 3
time step continuity errors : sum local = 0.047543, global = -0.0153271, cumulative = -0.0349335
DILUPBiCGStab:  Solving for omega, Initial residual = 0.0927129, Final residual = 9.67702e-09, No Iterations 29
DILUPBiCGStab:  Solving for k, Initial residual = 0.16469, Final residual = 2.60674e-09, No Iterations 24
ExecutionTime = 38.4374 s  ClockTime = 39 s

forceCoeffs forces write:
    Cm    = -0.0205881
    Cd    = -0.109284
    Cl    = -0.0282999
    Cl(f) = -0.034738
    Cl(r) = 0.00643813

Time = 8s

DILUPBiCGStab:  Solving for Ux, Initial residual = 0.0678245, Final residual = 1.40605e-09, No Iterations 4
DILUPBiCGStab:  Solving for Uy, Initial residual = 0.0992949, Final residual = 6.46648e-09, No Iterations 4
DILUPBiCGStab:  Solving for Uz, Initial residual = 0.0996931, Final residual = 2.97496e-09, No Iterations 4
GAMG:  Solving for p, Initial residual = 0.551643, Final residual = 0.0535169, No Iterations 3
time step continuity errors : sum local = 0.0399516, global = 0.0143198, cumulative = -0.0206137
DILUPBiCGStab:  Solving for omega, Initial residual = 0.066751, Final residual = 5.26761e-09, No Iterations 22
DILUPBiCGStab:  Solving for k, Initial residual = 0.113307, Final residual = 8.62464e-09, No Iterations 28
ExecutionTime = 42.2383 s  ClockTime = 42 s

forceCoeffs forces write:
    Cm    = -0.0831366
    Cd    = -0.394
    Cl    = -0.109238
    Cl(f) = -0.137756
    Cl(r) = 0.0285176

Time = 9s

DILUPBiCGStab:  Solving for Ux, Initial residual = 0.167001, Final residual = 6.53544e-11, No Iterations 5
DILUPBiCGStab:  Solving for Uy, Initial residual = 0.317978, Final residual = 8.93832e-09, No Iterations 4
DILUPBiCGStab:  Solving for Uz, Initial residual = 0.256846, Final residual = 2.27216e-09, No Iterations 4
GAMG:  Solving for p, Initial residual = 0.546523, Final residual = 0.0235182, No Iterations 3
time step continuity errors : sum local = 0.0166716, global = 0.00392638, cumulative = -0.0166873
DILUPBiCGStab:  Solving for omega, Initial residual = 0.0561953, Final residual = 7.7682e-09, No Iterations 29
DILUPBiCGStab:  Solving for k, Initial residual = 0.127588, Final residual = 8.39021e-09, No Iterations 20
bounding k, min: -0.0590356 max: 14.2696 average: 0.165035
ExecutionTime = 46.0729 s  ClockTime = 46 s

forceCoeffs forces write:
    Cm    = -0.0840434
    Cd    = -0.376527
    Cl    = -0.104148
    Cl(f) = -0.136117
    Cl(r) = 0.0319696

Time = 10s

DILUPBiCGStab:  Solving for Ux, Initial residual = 0.210598, Final residual = 6.51761e-09, No Iterations 4
DILUPBiCGStab:  Solving for Uy, Initial residual = 0.416494, Final residual = 8.59135e-09, No Iterations 4
DILUPBiCGStab:  Solving for Uz, Initial residual = 0.315433, Final residual = 2.95587e-09, No Iterations 4
GAMG:  Solving for p, Initial residual = 0.73135, Final residual = 0.0554172, No Iterations 3
time step continuity errors : sum local = 0.0359659, global = 0.0148367, cumulative = -0.0018506
DILUPBiCGStab:  Solving for omega, Initial residual = 0.238844, Final residual = 9.72123e-09, No Iterations 22
DILUPBiCGStab:  Solving for k, Initial residual = 0.0650824, Final residual = 7.02363e-09, No Iterations 31
bounding k, min: -0.0182803 max: 20.6476 average: 0.206766
ExecutionTime = 50.1132 s  ClockTime = 50 s

forceCoeffs forces write:
    Cm    = -0.0393026
    Cd    = -0.153029
    Cl    = -0.0402552
    Cl(f) = -0.0594301
    Cl(r) = 0.019175

Time = 11s

DILUPBiCGStab:  Solving for Ux, Initial residual = 0.0869364, Final residual = 4.56026e-11, No Iterations 5
DILUPBiCGStab:  Solving for Uy, Initial residual = 0.168595, Final residual = 4.19874e-09, No Iterations 4
DILUPBiCGStab:  Solving for Uz, Initial residual = 0.161465, Final residual = 7.13761e-09, No Iterations 4
GAMG:  Solving for p, Initial residual = 0.669782, Final residual = 0.045728, No Iterations 3
time step continuity errors : sum local = 0.0270524, global = 0.00309257, cumulative = 0.00124197
DILUPBiCGStab:  Solving for omega, Initial residual = 0.124093, Final residual = 5.69689e-09, No Iterations 72
DILUPBiCGStab:  Solving for k, Initial residual = 0.239889, Final residual = 7.93886e-09, No Iterations 20
bounding k, min: -0.138027 max: 12.9607 average: 0.146032
ExecutionTime = 55.7904 s  ClockTime = 56 s

forceCoeffs forces write:
    Cm    = 0.0216663
    Cd    = 0.134626
    Cl    = 0.0298254
    Cl(f) = 0.036579
    Cl(r) = -0.00675365

Time = 12s

DILUPBiCGStab:  Solving for Ux, Initial residual = 0.095352, Final residual = 1.62513e-09, No Iterations 4
DILUPBiCGStab:  Solving for Uy, Initial residual = 0.233347, Final residual = 1.36076e-09, No Iterations 4
DILUPBiCGStab:  Solving for Uz, Initial residual = 0.206627, Final residual = 8.77007e-09, No Iterations 4
GAMG:  Solving for p, Initial residual = 0.43589, Final residual = 0.0245458, No Iterations 3
time step continuity errors : sum local = 0.0182109, global = -0.00497934, cumulative = -0.00373737
DILUPBiCGStab:  Solving for omega, Initial residual = 0.754651, Final residual = 6.99627e-09, No Iterations 25
DILUPBiCGStab:  Solving for k, Initial residual = 0.0718382, Final residual = 5.8213e-09, No Iterations 35
bounding k, min: -0.0666048 max: 14.9084 average: 0.17573
ExecutionTime = 60.0261 s  ClockTime = 60 s

forceCoeffs forces write:
    Cm    = 0.0504023
    Cd    = 0.246575
    Cl    = 0.0695047
    Cl(f) = 0.0851546
    Cl(r) = -0.0156499

Time = 13s

DILUPBiCGStab:  Solving for Ux, Initial residual = 0.0695605, Final residual = 2.28413e-09, No Iterations 4
DILUPBiCGStab:  Solving for Uy, Initial residual = 0.155578, Final residual = 1.51902e-09, No Iterations 4
DILUPBiCGStab:  Solving for Uz, Initial residual = 0.162582, Final residual = 3.89955e-09, No Iterations 4
GAMG:  Solving for p, Initial residual = 0.452719, Final residual = 0.0233635, No Iterations 3
time step continuity errors : sum local = 0.0146453, global = -0.0026687, cumulative = -0.00640607
DILUPBiCGStab:  Solving for omega, Initial residual = 0.22417, Final residual = 5.8431e-09, No Iterations 105
DILUPBiCGStab:  Solving for k, Initial residual = 0.255018, Final residual = 1.75262e-09, No Iterations 20
bounding k, min: -0.288864 max: 17.7869 average: 0.118876
ExecutionTime = 67.5232 s  ClockTime = 68 s

forceCoeffs forces write:
    Cm    = 0.0479702
    Cd    = 0.218801
    Cl    = 0.0696539
    Cl(f) = 0.0827971
    Cl(r) = -0.0131432

Time = 14s

DILUPBiCGStab:  Solving for Ux, Initial residual = 0.0955508, Final residual = 3.10007e-09, No Iterations 4
DILUPBiCGStab:  Solving for Uy, Initial residual = 0.159582, Final residual = 1.99586e-09, No Iterations 4
DILUPBiCGStab:  Solving for Uz, Initial residual = 0.174734, Final residual = 2.74577e-09, No Iterations 4
GAMG:  Solving for p, Initial residual = 0.606079, Final residual = 0.0352518, No Iterations 3
time step continuity errors : sum local = 0.0277236, global = -0.00733558, cumulative = -0.0137416
DILUPBiCGStab:  Solving for omega, Initial residual = 0.851243, Final residual = 8.24633e-09, No Iterations 33
DILUPBiCGStab:  Solving for k, Initial residual = 0.199496, Final residual = 8.70209e-09, No Iterations 36
bounding k, min: -0.107269 max: 21.0867 average: 0.127555
ExecutionTime = 72.2006 s  ClockTime = 72 s

forceCoeffs forces write:
    Cm    = 0.0235611
    Cd    = 0.0995356
    Cl    = 0.0392925
    Cl(f) = 0.0432073
    Cl(r) = -0.00391488

Time = 15s

DILUPBiCGStab:  Solving for Ux, Initial residual = 0.0391171, Final residual = 8.5269e-09, No Iterations 4
DILUPBiCGStab:  Solving for Uy, Initial residual = 0.0549656, Final residual = 8.76021e-09, No Iterations 3
DILUPBiCGStab:  Solving for Uz, Initial residual = 0.0677802, Final residual = 5.05816e-09, No Iterations 4
GAMG:  Solving for p, Initial residual = 0.601136, Final residual = 0.0495244, No Iterations 3
time step continuity errors : sum local = 0.0305958, global = 1.94962e-05, cumulative = -0.0137222
DILUPBiCGStab:  Solving for omega, Initial residual = 0.387313, Final residual = 7.02667e-09, No Iterations 92
DILUPBiCGStab:  Solving for k, Initial residual = 0.233957, Final residual = 3.89081e-09, No Iterations 20
bounding k, min: -0.418591 max: 25.8487 average: 0.141394
ExecutionTime = 78.5082 s  ClockTime = 79 s

forceCoeffs forces write:
    Cm    = -0.00972177
    Cd    = -0.0589476
    Cl    = -0.000888394
    Cl(f) = -0.010166
    Cl(r) = 0.00927757

Time = 16s

DILUPBiCGStab:  Solving for Ux, Initial residual = 0.050548, Final residual = 4.45877e-09, No Iterations 4
DILUPBiCGStab:  Solving for Uy, Initial residual = 0.0966048, Final residual = 1.22148e-09, No Iterations 4
DILUPBiCGStab:  Solving for Uz, Initial residual = 0.0981886, Final residual = 7.69941e-09, No Iterations 4
GAMG:  Solving for p, Initial residual = 0.654846, Final residual = 0.0333038, No Iterations 3
time step continuity errors : sum local = 0.0185876, global = 0.002473, cumulative = -0.0112492
DILUPBiCGStab:  Solving for omega, Initial residual = 0.811175, Final residual = 9.16501e-09, No Iterations 57
DILUPBiCGStab:  Solving for k, Initial residual = 0.332676, Final residual = 1.20178e-09, No Iterations 42
bounding k, min: -0.217751 max: 29.3812 average: 0.122367
ExecutionTime = 84.3993 s  ClockTime = 85 s

forceCoeffs forces write:
    Cm    = -0.0240004
    Cd    = -0.0987832
    Cl    = -0.015687
    Cl(f) = -0.0318439
    Cl(r) = 0.0161569

Time = 17s

DILUPBiCGStab:  Solving for Ux, Initial residual = 0.0477356, Final residual = 1.06333e-09, No Iterations 4
DILUPBiCGStab:  Solving for Uy, Initial residual = 0.0965744, Final residual = 8.20564e-10, No Iterations 4
DILUPBiCGStab:  Solving for Uz, Initial residual = 0.0926442, Final residual = 2.09204e-09, No Iterations 4
GAMG:  Solving for p, Initial residual = 0.684159, Final residual = 0.0352229, No Iterations 3
time step continuity errors : sum local = 0.0152946, global = 0.000379129, cumulative = -0.01087
DILUPBiCGStab:  Solving for omega, Initial residual = 0.642395, Final residual = 8.19254e-09, No Iterations 68
DILUPBiCGStab:  Solving for k, Initial residual = 0.28064, Final residual = 3.37733e-09, No Iterations 26
bounding k, min: -0.136163 max: 37.2896 average: 0.161271
ExecutionTime = 90.1248 s  ClockTime = 90 s

forceCoeffs forces write:
    Cm    = -0.0193135
    Cd    = -0.0495662
    Cl    = -0.0122665
    Cl(f) = -0.0254467
    Cl(r) = 0.0131803

Time = 18s

DILUPBiCGStab:  Solving for Ux, Initial residual = 0.0567119, Final residual = 2.74298e-09, No Iterations 4
DILUPBiCGStab:  Solving for Uy, Initial residual = 0.12664, Final residual = 1.29485e-09, No Iterations 4
DILUPBiCGStab:  Solving for Uz, Initial residual = 0.122287, Final residual = 1.87857e-09, No Iterations 4
GAMG:  Solving for p, Initial residual = 0.5979, Final residual = 0.0261115, No Iterations 3
time step continuity errors : sum local = 0.016054, global = 0.00338634, cumulative = -0.00748369
DILUPBiCGStab:  Solving for omega, Initial residual = 0.52333, Final residual = 9.08741e-09, No Iterations 47
DILUPBiCGStab:  Solving for k, Initial residual = 0.311895, Final residual = 9.93174e-09, No Iterations 35
bounding k, min: -0.130112 max: 39.0903 average: 0.139268
ExecutionTime = 96.0369 s  ClockTime = 96 s

forceCoeffs forces write:
    Cm    = -0.00838917
    Cd    = -0.00770963
    Cl    = -0.00649707
    Cl(f) = -0.0116377
    Cl(r) = 0.00514063

Time = 19s

DILUPBiCGStab:  Solving for Ux, Initial residual = 0.0319767, Final residual = 2.30666e-09, No Iterations 4
DILUPBiCGStab:  Solving for Uy, Initial residual = 0.0673854, Final residual = 1.25471e-09, No Iterations 4
DILUPBiCGStab:  Solving for Uz, Initial residual = 0.0741247, Final residual = 6.40227e-09, No Iterations 4
GAMG:  Solving for p, Initial residual = 0.585626, Final residual = 0.0350777, No Iterations 3
time step continuity errors : sum local = 0.0185929, global = -0.000119415, cumulative = -0.0076031
DILUPBiCGStab:  Solving for omega, Initial residual = 0.703533, Final residual = 9.70519e-09, No Iterations 68
DILUPBiCGStab:  Solving for k, Initial residual = 0.191199, Final residual = 3.7919e-10, No Iterations 23
bounding k, min: -0.0679739 max: 45.5578 average: 0.159285
ExecutionTime = 101.519 s  ClockTime = 102 s

forceCoeffs forces write:
    Cm    = 0.00301758
    Cd    = 0.0230981
    Cl    = 0.0292306
    Cl(f) = 0.0176329
    Cl(r) = 0.0115977

Time = 20s

DILUPBiCGStab:  Solving for Ux, Initial residual = 0.0378412, Final residual = 4.58581e-09, No Iterations 4
DILUPBiCGStab:  Solving for Uy, Initial residual = 0.0875063, Final residual = 1.3251e-09, No Iterations 4
DILUPBiCGStab:  Solving for Uz, Initial residual = 0.0881128, Final residual = 5.18965e-09, No Iterations 4
GAMG:  Solving for p, Initial residual = 0.520068, Final residual = 0.0419684, No Iterations 2
time step continuity errors : sum local = 0.0242504, global = 0.000506783, cumulative = -0.00709632
DILUPBiCGStab:  Solving for omega, Initial residual = 0.374789, Final residual = 2.26761e-09, No Iterations 67
DILUPBiCGStab:  Solving for k, Initial residual = 0.400604, Final residual = 7.89139e-09, No Iterations 31
bounding k, min: -0.112608 max: 43.5699 average: 0.124072
ExecutionTime = 107.406 s  ClockTime = 108 s

forceCoeffs forces write:
    Cm    = 0.00867276
    Cd    = 0.0424867
    Cl    = 0.048166
    Cl(f) = 0.0327558
    Cl(r) = 0.0154103

Time = 21s

DILUPBiCGStab:  Solving for Ux, Initial residual = 0.0313674, Final residual = 1.98386e-09, No Iterations 4
DILUPBiCGStab:  Solving for Uy, Initial residual = 0.0805543, Final residual = 1.61195e-09, No Iterations 4
DILUPBiCGStab:  Solving for Uz, Initial residual = 0.0849491, Final residual = 6.02349e-09, No Iterations 4
GAMG:  Solving for p, Initial residual = 0.558162, Final residual = 0.0518282, No Iterations 2
time step continuity errors : sum local = 0.0269013, global = -0.00114283, cumulative = -0.00823915
DILUPBiCGStab:  Solving for omega, Initial residual = 0.673143, Final residual = 4.31732e-09, No Iterations 49
DILUPBiCGStab:  Solving for k, Initial residual = 0.122976, Final residual = 8.89061e-09, No Iterations 21
bounding k, min: -0.0292629 max: 49.7952 average: 0.169555
ExecutionTime = 111.928 s  ClockTime = 112 s

forceCoeffs forces write:
    Cm    = 0.0141751
    Cd    = 0.0523488
    Cl    = 0.0442044
    Cl(f) = 0.0362773
    Cl(r) = 0.00792713

Time = 22s

DILUPBiCGStab:  Solving for Ux, Initial residual = 0.0313075, Final residual = 8.35901e-09, No Iterations 3
DILUPBiCGStab:  Solving for Uy, Initial residual = 0.0699872, Final residual = 1.18302e-09, No Iterations 4
DILUPBiCGStab:  Solving for Uz, Initial residual = 0.0732402, Final residual = 1.36247e-09, No Iterations 4
GAMG:  Solving for p, Initial residual = 0.523038, Final residual = 0.0218196, No Iterations 3
time step continuity errors : sum local = 0.0105681, global = -0.000531209, cumulative = -0.00877036
DILUPBiCGStab:  Solving for omega, Initial residual = 0.296205, Final residual = 2.40908e-09, No Iterations 77
DILUPBiCGStab:  Solving for k, Initial residual = 0.430063, Final residual = 8.48724e-09, No Iterations 29
bounding k, min: -0.0755664 max: 48.3713 average: 0.130989
ExecutionTime = 118.26 s  ClockTime = 118 s

forceCoeffs forces write:
    Cm    = 0.0181374
    Cd    = 0.0427413
    Cl    = 0.044635
    Cl(f) = 0.0404549
    Cl(r) = 0.00418009

Time = 23s

DILUPBiCGStab:  Solving for Ux, Initial residual = 0.0247672, Final residual = 1.80572e-09, No Iterations 4
DILUPBiCGStab:  Solving for Uy, Initial residual = 0.0641222, Final residual = 6.50444e-09, No Iterations 4
DILUPBiCGStab:  Solving for Uz, Initial residual = 0.0679943, Final residual = 9.59335e-10, No Iterations 4
GAMG:  Solving for p, Initial residual = 0.575782, Final residual = 0.0503731, No Iterations 2
time step continuity errors : sum local = 0.0297841, global = -0.00146365, cumulative = -0.010234
DILUPBiCGStab:  Solving for omega, Initial residual = 0.63088, Final residual = 9.86547e-09, No Iterations 59
DILUPBiCGStab:  Solving for k, Initial residual = 0.0887684, Final residual = 8.00443e-09, No Iterations 25
bounding k, min: -0.260316 max: 52.4897 average: 0.162738
ExecutionTime = 123.632 s  ClockTime = 124 s

forceCoeffs forces write:
    Cm    = 0.0146276
    Cd    = 0.0316232
    Cl    = 0.0373129
    Cl(f) = 0.033284
    Cl(r) = 0.00402887

Time = 24s

DILUPBiCGStab:  Solving for Ux, Initial residual = 0.0244562, Final residual = 2.38148e-09, No Iterations 4
DILUPBiCGStab:  Solving for Uy, Initial residual = 0.0495389, Final residual = 5.17548e-09, No Iterations 3
DILUPBiCGStab:  Solving for Uz, Initial residual = 0.0576481, Final residual = 9.28238e-12, No Iterations 5
GAMG:  Solving for p, Initial residual = 0.546793, Final residual = 0.0545545, No Iterations 2
time step continuity errors : sum local = 0.0281718, global = -0.000255874, cumulative = -0.0104899
DILUPBiCGStab:  Solving for omega, Initial residual = 0.263146, Final residual = 4.43613e-09, No Iterations 59
DILUPBiCGStab:  Solving for k, Initial residual = 0.232833, Final residual = 7.57252e-09, No Iterations 27
bounding k, min: -0.72552 max: 44.9381 average: 0.148514
ExecutionTime = 129.048 s  ClockTime = 129 s

forceCoeffs forces write:
    Cm    = 0.00709196
    Cd    = 0.019857
    Cl    = 0.0149445
    Cl(f) = 0.0145642
    Cl(r) = 0.000380289

Time = 25s

DILUPBiCGStab:  Solving for Ux, Initial residual = 0.0228784, Final residual = 2.02858e-09, No Iterations 4
DILUPBiCGStab:  Solving for Uy, Initial residual = 0.0539489, Final residual = 7.19946e-09, No Iterations 4
DILUPBiCGStab:  Solving for Uz, Initial residual = 0.0538883, Final residual = 7.43437e-09, No Iterations 4
GAMG:  Solving for p, Initial residual = 0.536694, Final residual = 0.0453436, No Iterations 2
time step continuity errors : sum local = 0.0252208, global = 0.000333877, cumulative = -0.010156
DILUPBiCGStab:  Solving for omega, Initial residual = 0.359755, Final residual = 8.72911e-09, No Iterations 70
DILUPBiCGStab:  Solving for k, Initial residual = 0.0864877, Final residual = 9.83603e-09, No Iterations 26
bounding k, min: -0.111072 max: 49.137 average: 0.178707
ExecutionTime = 134.889 s  ClockTime = 135 s

forceCoeffs forces write:
    Cm    = 0.00108328
    Cd    = 0.00897131
    Cl    = 0.00486846
    Cl(f) = 0.00351751
    Cl(r) = 0.00135094

Time = 26s

DILUPBiCGStab:  Solving for Ux, Initial residual = 0.0199316, Final residual = 9.49409e-09, No Iterations 3
DILUPBiCGStab:  Solving for Uy, Initial residual = 0.0422291, Final residual = 9.21192e-09, No Iterations 3
DILUPBiCGStab:  Solving for Uz, Initial residual = 0.0441958, Final residual = 1.122e-09, No Iterations 4
GAMG:  Solving for p, Initial residual = 0.488519, Final residual = 0.0459813, No Iterations 2
time step continuity errors : sum local = 0.0225106, global = 0.000788643, cumulative = -0.00936736
DILUPBiCGStab:  Solving for omega, Initial residual = 0.295497, Final residual = 9.49512e-09, No Iterations 53
DILUPBiCGStab:  Solving for k, Initial residual = 0.188778, Final residual = 7.4787e-09, No Iterations 26
bounding k, min: -0.0140048 max: 53.5844 average: 0.165518
ExecutionTime = 139.798 s  ClockTime = 140 s

forceCoeffs forces write:
    Cm    = -0.00870948
    Cd    = 0.00232563
    Cl    = -0.0105211
    Cl(f) = -0.0139701
    Cl(r) = 0.00344892

Time = 27s

DILUPBiCGStab:  Solving for Ux, Initial residual = 0.0186356, Final residual = 1.19437e-09, No Iterations 4
DILUPBiCGStab:  Solving for Uy, Initial residual = 0.0451589, Final residual = 9.94862e-09, No Iterations 3
DILUPBiCGStab:  Solving for Uz, Initial residual = 0.0429783, Final residual = 3.16717e-09, No Iterations 4
GAMG:  Solving for p, Initial residual = 0.459869, Final residual = 0.0412405, No Iterations 2
time step continuity errors : sum local = 0.0219597, global = 0.00111684, cumulative = -0.00825053
DILUPBiCGStab:  Solving for omega, Initial residual = 0.279677, Final residual = 9.07852e-09, No Iterations 60
DILUPBiCGStab:  Solving for k, Initial residual = 0.0822225, Final residual = 7.20303e-09, No Iterations 28
bounding k, min: -0.133693 max: 57.8269 average: 0.176821
ExecutionTime = 145.106 s  ClockTime = 145 s

forceCoeffs forces write:
    Cm    = -0.00803099
    Cd    = 0.00115734
    Cl    = -0.00518345
    Cl(f) = -0.0106227
    Cl(r) = 0.00543927

Time = 28s

DILUPBiCGStab:  Solving for Ux, Initial residual = 0.0176022, Final residual = 8.06485e-09, No Iterations 3
DILUPBiCGStab:  Solving for Uy, Initial residual = 0.0399716, Final residual = 9.619e-09, No Iterations 3
DILUPBiCGStab:  Solving for Uz, Initial residual = 0.0371502, Final residual = 1.29835e-09, No Iterations 4
GAMG:  Solving for p, Initial residual = 0.416431, Final residual = 0.022592, No Iterations 3
time step continuity errors : sum local = 0.0109084, global = 0.000193363, cumulative = -0.00805717
DILUPBiCGStab:  Solving for omega, Initial residual = 0.30267, Final residual = 4.99019e-09, No Iterations 55
DILUPBiCGStab:  Solving for k, Initial residual = 0.142067, Final residual = 9.41272e-09, No Iterations 22
bounding k, min: -0.0184896 max: 62.1186 average: 0.161603
ExecutionTime = 150.022 s  ClockTime = 150 s

forceCoeffs forces write:
    Cm    = -0.00157767
    Cd    = 0.00367497
    Cl    = 0.0184139
    Cl(f) = 0.00762926
    Cl(r) = 0.0107846

Time = 29s

DILUPBiCGStab:  Solving for Ux, Initial residual = 0.018659, Final residual = 3.20128e-09, No Iterations 4
DILUPBiCGStab:  Solving for Uy, Initial residual = 0.0480177, Final residual = 8.18005e-10, No Iterations 4
DILUPBiCGStab:  Solving for Uz, Initial residual = 0.0439092, Final residual = 4.23358e-09, No Iterations 4
GAMG:  Solving for p, Initial residual = 0.392875, Final residual = 0.034607, No Iterations 2
time step continuity errors : sum local = 0.016536, global = 0.000204528, cumulative = -0.00785264
DILUPBiCGStab:  Solving for omega, Initial residual = 0.309552, Final residual = 6.51211e-09, No Iterations 48
DILUPBiCGStab:  Solving for k, Initial residual = 0.0897835, Final residual = 8.48904e-09, No Iterations 27
bounding k, min: -0.131427 max: 66.1981 average: 0.174865
ExecutionTime = 155.16 s  ClockTime = 155 s

forceCoeffs forces write:
    Cm    = 0.00098831
    Cd    = 0.00735241
    Cl    = 0.0245632
    Cl(f) = 0.0132699
    Cl(r) = 0.0112933

Time = 30s

DILUPBiCGStab:  Solving for Ux, Initial residual = 0.0159467, Final residual = 7.2363e-09, No Iterations 3
DILUPBiCGStab:  Solving for Uy, Initial residual = 0.0432823, Final residual = 1.21208e-09, No Iterations 4
DILUPBiCGStab:  Solving for Uz, Initial residual = 0.0396893, Final residual = 4.62382e-09, No Iterations 4
GAMG:  Solving for p, Initial residual = 0.385181, Final residual = 0.0373203, No Iterations 2
time step continuity errors : sum local = 0.0158575, global = -0.000171356, cumulative = -0.00802399
DILUPBiCGStab:  Solving for omega, Initial residual = 0.239428, Final residual = 9.97002e-09, No Iterations 59
DILUPBiCGStab:  Solving for k, Initial residual = 0.158004, Final residual = 7.30721e-09, No Iterations 25
bounding k, min: -0.0180047 max: 70.2003 average: 0.164292
ExecutionTime = 160.236 s  ClockTime = 161 s

forceCoeffs forces write:
    Cm    = 0.00450427
    Cd    = 0.0155162
    Cl    = 0.0289708
    Cl(f) = 0.0189896
    Cl(r) = 0.00998111

Time = 31s

DILUPBiCGStab:  Solving for Ux, Initial residual = 0.014425, Final residual = 4.00318e-09, No Iterations 4
DILUPBiCGStab:  Solving for Uy, Initial residual = 0.0411909, Final residual = 1.00633e-09, No Iterations 4
DILUPBiCGStab:  Solving for Uz, Initial residual = 0.0406908, Final residual = 5.16728e-09, No Iterations 4
GAMG:  Solving for p, Initial residual = 0.375335, Final residual = 0.0374049, No Iterations 2
time step continuity errors : sum local = 0.0159029, global = 0.000219083, cumulative = -0.00780491
DILUPBiCGStab:  Solving for omega, Initial residual = 0.914067, Final residual = 2.48426e-09, No Iterations 51
DILUPBiCGStab:  Solving for k, Initial residual = 0.10584, Final residual = 8.50787e-09, No Iterations 27
bounding k, min: -0.100273 max: 73.9909 average: 0.170218
ExecutionTime = 165.09 s  ClockTime = 165 s

forceCoeffs forces write:
    Cm    = 0.00685078
    Cd    = 0.020391
    Cl    = 0.0278008
    Cl(f) = 0.0207512
    Cl(r) = 0.00704962

Time = 32s

DILUPBiCGStab:  Solving for Ux, Initial residual = 0.0141934, Final residual = 1.58399e-09, No Iterations 4
DILUPBiCGStab:  Solving for Uy, Initial residual = 0.0353203, Final residual = 8.63394e-10, No Iterations 4
DILUPBiCGStab:  Solving for Uz, Initial residual = 0.035081, Final residual = 6.9716e-10, No Iterations 4
GAMG:  Solving for p, Initial residual = 0.392668, Final residual = 0.0233636, No Iterations 3
time step continuity errors : sum local = 0.00820736, global = 3.3925e-05, cumulative = -0.00777099
DILUPBiCGStab:  Solving for omega, Initial residual = 0.359676, Final residual = 7.98177e-09, No Iterations 78
DILUPBiCGStab:  Solving for k, Initial residual = 0.298728, Final residual = 6.77682e-09, No Iterations 21
bounding k, min: -0.0527743 max: 77.6592 average: 0.164617
ExecutionTime = 170.897 s  ClockTime = 171 s

forceCoeffs forces write:
    Cm    = 0.00755892
    Cd    = 0.0250153
    Cl    = 0.0162427
    Cl(f) = 0.0156803
    Cl(r) = 0.00056245

Time = 33s

DILUPBiCGStab:  Solving for Ux, Initial residual = 0.0163324, Final residual = 3.67553e-09, No Iterations 3
DILUPBiCGStab:  Solving for Uy, Initial residual = 0.0364698, Final residual = 5.93573e-10, No Iterations 4
DILUPBiCGStab:  Solving for Uz, Initial residual = 0.0391074, Final residual = 1.06121e-09, No Iterations 4
GAMG:  Solving for p, Initial residual = 0.3978, Final residual = 0.0344243, No Iterations 2
time step continuity errors : sum local = 0.0117303, global = -0.00061782, cumulative = -0.00838881
DILUPBiCGStab:  Solving for omega, Initial residual = 0.942223, Final residual = 7.40669e-09, No Iterations 49
DILUPBiCGStab:  Solving for k, Initial residual = 0.144692, Final residual = 8.59646e-09, No Iterations 28
bounding k, min: -0.612147 max: 81.1462 average: 0.166819
ExecutionTime = 175.655 s  ClockTime = 176 s

forceCoeffs forces write:
    Cm    = 0.0090408
    Cd    = 0.024908
    Cl    = 0.0190443
    Cl(f) = 0.0185629
    Cl(r) = 0.000481338

Time = 34s

DILUPBiCGStab:  Solving for Ux, Initial residual = 0.01804, Final residual = 2.09514e-09, No Iterations 3
DILUPBiCGStab:  Solving for Uy, Initial residual = 0.0358053, Final residual = 4.37463e-09, No Iterations 3
DILUPBiCGStab:  Solving for Uz, Initial residual = 0.0326509, Final residual = 4.05597e-09, No Iterations 3
GAMG:  Solving for p, Initial residual = 0.429704, Final residual = 0.0197571, No Iterations 3
time step continuity errors : sum local = 0.00621258, global = 9.89485e-05, cumulative = -0.00828986
DILUPBiCGStab:  Solving for omega, Initial residual = 0.360028, Final residual = 3.58418e-09, No Iterations 109
DILUPBiCGStab:  Solving for k, Initial residual = 0.250453, Final residual = 7.40613e-09, No Iterations 27
bounding k, min: -0.019949 max: 84.4561 average: 0.184966
ExecutionTime = 182.911 s  ClockTime = 183 s

forceCoeffs forces write:
    Cm    = 0.00731297
    Cd    = 0.023801
    Cl    = 0.0158354
    Cl(f) = 0.0152307
    Cl(r) = 0.000604739

Time = 35s

DILUPBiCGStab:  Solving for Ux, Initial residual = 0.0163246, Final residual = 9.58889e-09, No Iterations 3
DILUPBiCGStab:  Solving for Uy, Initial residual = 0.0381124, Final residual = 5.91042e-10, No Iterations 4
DILUPBiCGStab:  Solving for Uz, Initial residual = 0.0397825, Final residual = 3.38491e-09, No Iterations 4
GAMG:  Solving for p, Initial residual = 0.459293, Final residual = 0.0387954, No Iterations 2
time step continuity errors : sum local = 0.016262, global = 0.0008697, cumulative = -0.00742016
DILUPBiCGStab:  Solving for omega, Initial residual = 0.900948, Final residual = 9.03431e-09, No Iterations 47
DILUPBiCGStab:  Solving for k, Initial residual = 0.140436, Final residual = 9.12231e-09, No Iterations 25
bounding k, min: -0.368403 max: 88.7273 average: 0.173727
ExecutionTime = 187.777 s  ClockTime = 188 s

forceCoeffs forces write:
    Cm    = 0.0041504
    Cd    = 0.0206151
    Cl    = 0.00753621
    Cl(f) = 0.0079185
    Cl(r) = -0.000382293

Time = 36s

DILUPBiCGStab:  Solving for Ux, Initial residual = 0.0163571, Final residual = 3.22803e-09, No Iterations 3
DILUPBiCGStab:  Solving for Uy, Initial residual = 0.0326065, Final residual = 4.73631e-09, No Iterations 3
DILUPBiCGStab:  Solving for Uz, Initial residual = 0.0307159, Final residual = 7.59338e-09, No Iterations 3
GAMG:  Solving for p, Initial residual = 0.451807, Final residual = 0.0424705, No Iterations 2
time step continuity errors : sum local = 0.0163377, global = 0.00139686, cumulative = -0.00602329
DILUPBiCGStab:  Solving for omega, Initial residual = 0.331311, Final residual = 9.7163e-09, No Iterations 77
DILUPBiCGStab:  Solving for k, Initial residual = 0.250981, Final residual = 9.86161e-09, No Iterations 36
bounding k, min: -0.187637 max: 92.8085 average: 0.206231
ExecutionTime = 194.121 s  ClockTime = 194 s

forceCoeffs forces write:
    Cm    = 0.00235544
    Cd    = 0.0151745
    Cl    = 0.00191798
    Cl(f) = 0.00331443
    Cl(r) = -0.00139645

Time = 37s

DILUPBiCGStab:  Solving for Ux, Initial residual = 0.0128838, Final residual = 5.61278e-09, No Iterations 3
DILUPBiCGStab:  Solving for Uy, Initial residual = 0.0315454, Final residual = 8.29496e-10, No Iterations 4
DILUPBiCGStab:  Solving for Uz, Initial residual = 0.0335255, Final residual = 8.42739e-10, No Iterations 4
GAMG:  Solving for p, Initial residual = 0.446263, Final residual = 0.0359434, No Iterations 2
time step continuity errors : sum local = 0.0155882, global = 0.0011716, cumulative = -0.00485169
DILUPBiCGStab:  Solving for omega, Initial residual = 0.604324, Final residual = 7.96731e-09, No Iterations 54
DILUPBiCGStab:  Solving for k, Initial residual = 0.13365, Final residual = 7.84481e-09, No Iterations 29
bounding k, min: -0.273359 max: 96.2755 average: 0.191946
ExecutionTime = 199.445 s  ClockTime = 200 s

forceCoeffs forces write:
    Cm    = 0.00185302
    Cd    = 0.0120938
    Cl    = 0.00456922
    Cl(f) = 0.00413763
    Cl(r) = 0.000431585

Time = 38s

DILUPBiCGStab:  Solving for Ux, Initial residual = 0.0105731, Final residual = 7.02393e-09, No Iterations 3
DILUPBiCGStab:  Solving for Uy, Initial residual = 0.029826, Final residual = 6.93384e-09, No Iterations 3
DILUPBiCGStab:  Solving for Uz, Initial residual = 0.0266101, Final residual = 1.02537e-09, No Iterations 4
GAMG:  Solving for p, Initial residual = 0.387659, Final residual = 0.0309291, No Iterations 2
time step continuity errors : sum local = 0.0130126, global = 0.0009004, cumulative = -0.00395129
DILUPBiCGStab:  Solving for omega, Initial residual = 0.295788, Final residual = 9.96442e-09, No Iterations 57
DILUPBiCGStab:  Solving for k, Initial residual = 0.156089, Final residual = 3.73638e-09, No Iterations 29
bounding k, min: -0.0721069 max: 99.2081 average: 0.214043
ExecutionTime = 204.698 s  ClockTime = 205 s

forceCoeffs forces write:
    Cm    = -0.000228629
    Cd    = 0.0100687
    Cl    = 0.00366069
    Cl(f) = 0.00160172
    Cl(r) = 0.00205897

Time = 39s

DILUPBiCGStab:  Solving for Ux, Initial residual = 0.0108987, Final residual = 1.06479e-09, No Iterations 4
DILUPBiCGStab:  Solving for Uy, Initial residual = 0.0309094, Final residual = 3.35963e-09, No Iterations 4
DILUPBiCGStab:  Solving for Uz, Initial residual = 0.0314925, Final residual = 6.19587e-10, No Iterations 4
GAMG:  Solving for p, Initial residual = 0.329665, Final residual = 0.0265466, No Iterations 2
time step continuity errors : sum local = 0.0115478, global = 0.000954298, cumulative = -0.002997
DILUPBiCGStab:  Solving for omega, Initial residual = 0.36719, Final residual = 5.63218e-09, No Iterations 58
DILUPBiCGStab:  Solving for k, Initial residual = 0.127284, Final residual = 9.78363e-09, No Iterations 24
bounding k, min: -0.353923 max: 101.763 average: 0.186237
ExecutionTime = 209.856 s  ClockTime = 210 s

forceCoeffs forces write:
    Cm    = -0.00117622
    Cd    = 0.00930875
    Cl    = 0.00301642
    Cl(f) = 0.000331991
    Cl(r) = 0.00268443

Time = 40s

DILUPBiCGStab:  Solving for Ux, Initial residual = 0.0106, Final residual = 2.86687e-09, No Iterations 3
DILUPBiCGStab:  Solving for Uy, Initial residual = 0.0304605, Final residual = 6.39071e-09, No Iterations 3
DILUPBiCGStab:  Solving for Uz, Initial residual = 0.0294228, Final residual = 8.27018e-09, No Iterations 3
GAMG:  Solving for p, Initial residual = 0.31542, Final residual = 0.0275048, No Iterations 2
time step continuity errors : sum local = 0.0112562, global = 0.000652767, cumulative = -0.00234423
DILUPBiCGStab:  Solving for omega, Initial residual = 0.323578, Final residual = 7.63154e-09, No Iterations 70
DILUPBiCGStab:  Solving for k, Initial residual = 0.114328, Final residual = 6.57827e-09, No Iterations 27
bounding k, min: -0.102553 max: 107.551 average: 0.209623
ExecutionTime = 216.51 s  ClockTime = 217 s

forceCoeffs forces write:
    Cm    = -0.000235893
    Cd    = 0.011452
    Cl    = 0.00244081
    Cl(f) = 0.000984514
    Cl(r) = 0.0014563

Time = 41s

DILUPBiCGStab:  Solving for Ux, Initial residual = 0.0121275, Final residual = 3.64164e-09, No Iterations 3
DILUPBiCGStab:  Solving for Uy, Initial residual = 0.0316785, Final residual = 4.17864e-09, No Iterations 3
DILUPBiCGStab:  Solving for Uz, Initial residual = 0.0341845, Final residual = 7.7518e-09, No Iterations 3
GAMG:  Solving for p, Initial residual = 0.314611, Final residual = 0.0280635, No Iterations 2
time step continuity errors : sum local = 0.0117234, global = 0.000115899, cumulative = -0.00222833
DILUPBiCGStab:  Solving for omega, Initial residual = 0.544921, Final residual = 9.85543e-09, No Iterations 59
DILUPBiCGStab:  Solving for k, Initial residual = 0.150592, Final residual = 8.24538e-09, No Iterations 30
bounding k, min: -0.241809 max: 112.651 average: 0.185055
ExecutionTime = 221.848 s  ClockTime = 222 s

forceCoeffs forces write:
    Cm    = 0.00100148
    Cd    = 0.0122291
    Cl    = 0.00714259
    Cl(f) = 0.00457277
    Cl(r) = 0.00256982

Time = 42s

DILUPBiCGStab:  Solving for Ux, Initial residual = 0.0109283, Final residual = 4.12996e-09, No Iterations 3
DILUPBiCGStab:  Solving for Uy, Initial residual = 0.0293389, Final residual = 8.84321e-09, No Iterations 3
DILUPBiCGStab:  Solving for Uz, Initial residual = 0.031394, Final residual = 9.74915e-10, No Iterations 4
GAMG:  Solving for p, Initial residual = 0.323143, Final residual = 0.0277594, No Iterations 2
time step continuity errors : sum local = 0.0121613, global = -0.000503319, cumulative = -0.00273165
DILUPBiCGStab:  Solving for omega, Initial residual = 0.345896, Final residual = 9.13376e-09, No Iterations 74
DILUPBiCGStab:  Solving for k, Initial residual = 0.164, Final residual = 8.36719e-09, No Iterations 29
bounding k, min: -0.022689 max: 127.706 average: 0.211573
ExecutionTime = 227.739 s  ClockTime = 228 s

forceCoeffs forces write:
    Cm    = 0.00189145
    Cd    = 0.0121131
    Cl    = 0.00810321
    Cl(f) = 0.00594306
    Cl(r) = 0.00216015

Time = 43s

DILUPBiCGStab:  Solving for Ux, Initial residual = 0.0112291, Final residual = 4.3992e-09, No Iterations 3
DILUPBiCGStab:  Solving for Uy, Initial residual = 0.0252432, Final residual = 4.78141e-09, No Iterations 3
DILUPBiCGStab:  Solving for Uz, Initial residual = 0.0300815, Final residual = 1.67987e-09, No Iterations 4
GAMG:  Solving for p, Initial residual = 0.29548, Final residual = 0.0266752, No Iterations 2
time step continuity errors : sum local = 0.0110722, global = -0.000960473, cumulative = -0.00369212
DILUPBiCGStab:  Solving for omega, Initial residual = 0.908909, Final residual = 4.69046e-09, No Iterations 52
DILUPBiCGStab:  Solving for k, Initial residual = 0.122891, Final residual = 6.32885e-09, No Iterations 30
bounding k, min: -0.164765 max: 127.113 average: 0.18971
ExecutionTime = 232.781 s  ClockTime = 233 s

forceCoeffs forces write:
    Cm    = 0.00333679
    Cd    = 0.0137024
    Cl    = 0.0133754
    Cl(f) = 0.0100245
    Cl(r) = 0.00335093

Time = 44s

DILUPBiCGStab:  Solving for Ux, Initial residual = 0.0130271, Final residual = 3.13539e-09, No Iterations 3
DILUPBiCGStab:  Solving for Uy, Initial residual = 0.0320498, Final residual = 5.89324e-09, No Iterations 3
DILUPBiCGStab:  Solving for Uz, Initial residual = 0.0358375, Final residual = 1.32224e-09, No Iterations 4
GAMG:  Solving for p, Initial residual = 0.304692, Final residual = 0.0251876, No Iterations 2
time step continuity errors : sum local = 0.0100557, global = -0.00101256, cumulative = -0.00470468
DILUPBiCGStab:  Solving for omega, Initial residual = 0.26332, Final residual = 9.15785e-09, No Iterations 73
DILUPBiCGStab:  Solving for k, Initial residual = 0.168556, Final residual = 9.93508e-09, No Iterations 32
bounding k, min: -0.143665 max: 145.496 average: 0.22136
ExecutionTime = 238.72 s  ClockTime = 239 s

forceCoeffs forces write:
    Cm    = 0.00616898
    Cd    = 0.0244569
    Cl    = 0.0113473
    Cl(f) = 0.0118426
    Cl(r) = -0.000495305

Time = 45s

DILUPBiCGStab:  Solving for Ux, Initial residual = 0.011387, Final residual = 2.74245e-09, No Iterations 3
DILUPBiCGStab:  Solving for Uy, Initial residual = 0.0260549, Final residual = 8.23699e-10, No Iterations 4
DILUPBiCGStab:  Solving for Uz, Initial residual = 0.0289821, Final residual = 8.9742e-10, No Iterations 4
GAMG:  Solving for p, Initial residual = 0.361233, Final residual = 0.0248292, No Iterations 2
time step continuity errors : sum local = 0.0104585, global = -0.00147042, cumulative = -0.0061751
DILUPBiCGStab:  Solving for omega, Initial residual = 0.668456, Final residual = 2.81794e-09, No Iterations 60
DILUPBiCGStab:  Solving for k, Initial residual = 0.108974, Final residual = 8.4535e-09, No Iterations 25
bounding k, min: -0.165245 max: 138.044 average: 0.186257
ExecutionTime = 244.098 s  ClockTime = 244 s

forceCoeffs forces write:
    Cm    = 0.00588441
    Cd    = 0.020853
    Cl    = 0.00979132
    Cl(f) = 0.0107801
    Cl(r) = -0.000988749

Time = 46s

DILUPBiCGStab:  Solving for Ux, Initial residual = 0.0103363, Final residual = 3.19359e-09, No Iterations 3
DILUPBiCGStab:  Solving for Uy, Initial residual = 0.024131, Final residual = 5.69986e-09, No Iterations 3
DILUPBiCGStab:  Solving for Uz, Initial residual = 0.0257619, Final residual = 1.13786e-09, No Iterations 4
GAMG:  Solving for p, Initial residual = 0.359566, Final residual = 0.0236642, No Iterations 2
time step continuity errors : sum local = 0.00882588, global = -0.00131692, cumulative = -0.00749203
DILUPBiCGStab:  Solving for omega, Initial residual = 0.277491, Final residual = 7.43893e-09, No Iterations 45
DILUPBiCGStab:  Solving for k, Initial residual = 0.142595, Final residual = 4.32072e-09, No Iterations 38
bounding k, min: -0.17621 max: 123.937 average: 0.241903
ExecutionTime = 249.38 s  ClockTime = 250 s

forceCoeffs forces write:
    Cm    = 0.00452597
    Cd    = 0.0114685
    Cl    = 0.00727745
    Cl(f) = 0.0081647
    Cl(r) = -0.000887247

Time = 47s

DILUPBiCGStab:  Solving for Ux, Initial residual = 0.0109338, Final residual = 6.80322e-09, No Iterations 3
DILUPBiCGStab:  Solving for Uy, Initial residual = 0.0234534, Final residual = 4.321e-09, No Iterations 3
DILUPBiCGStab:  Solving for Uz, Initial residual = 0.0251983, Final residual = 4.73067e-09, No Iterations 3
GAMG:  Solving for p, Initial residual = 0.336645, Final residual = 0.0268309, No Iterations 2
time step continuity errors : sum local = 0.00869541, global = -0.00096512, cumulative = -0.00845715
DILUPBiCGStab:  Solving for omega, Initial residual = 0.181383, Final residual = 9.98732e-09, No Iterations 57
DILUPBiCGStab:  Solving for k, Initial residual = 0.12068, Final residual = 8.22263e-09, No Iterations 25
bounding k, min: -0.173865 max: 133.669 average: 0.200606
ExecutionTime = 254.396 s  ClockTime = 255 s

forceCoeffs forces write:
    Cm    = 0.00369437
    Cd    = 0.0103891
    Cl    = 0.00835065
    Cl(f) = 0.00786969
    Cl(r) = 0.000480955

Time = 48s

DILUPBiCGStab:  Solving for Ux, Initial residual = 0.00998991, Final residual = 4.40752e-09, No Iterations 3
DILUPBiCGStab:  Solving for Uy, Initial residual = 0.0235835, Final residual = 4.11281e-09, No Iterations 3
DILUPBiCGStab:  Solving for Uz, Initial residual = 0.0252342, Final residual = 7.6876e-09, No Iterations 4
GAMG:  Solving for p, Initial residual = 0.341282, Final residual = 0.027443, No Iterations 2
time step continuity errors : sum local = 0.00892108, global = -0.000563383, cumulative = -0.00902053
DILUPBiCGStab:  Solving for omega, Initial residual = 0.290879, Final residual = 1.9857e-09, No Iterations 40
DILUPBiCGStab:  Solving for k, Initial residual = 0.0679786, Final residual = 2.23407e-09, No Iterations 41
bounding k, min: -0.250755 max: 124.602 average: 0.230186
ExecutionTime = 259.267 s  ClockTime = 260 s

forceCoeffs forces write:
    Cm    = 0.0029471
    Cd    = 0.0116765
    Cl    = 0.00753692
    Cl(f) = 0.00671556
    Cl(r) = 0.000821365

Time = 49s

DILUPBiCGStab:  Solving for Ux, Initial residual = 0.00999541, Final residual = 2.5511e-09, No Iterations 3
DILUPBiCGStab:  Solving for Uy, Initial residual = 0.0200539, Final residual = 2.61444e-09, No Iterations 3
DILUPBiCGStab:  Solving for Uz, Initial residual = 0.021453, Final residual = 8.4687e-10, No Iterations 4
GAMG:  Solving for p, Initial residual = 0.331198, Final residual = 0.0290545, No Iterations 2
time step continuity errors : sum local = 0.00890694, global = 3.51602e-05, cumulative = -0.00898537
DILUPBiCGStab:  Solving for omega, Initial residual = 0.162902, Final residual = 8.85158e-09, No Iterations 54
DILUPBiCGStab:  Solving for k, Initial residual = 0.11614, Final residual = 2.0928e-09, No Iterations 25
bounding k, min: -0.123646 max: 130.16 average: 0.197447
ExecutionTime = 264.347 s  ClockTime = 265 s

forceCoeffs forces write:
    Cm    = 0.00279773
    Cd    = 0.0133568
    Cl    = 0.00928979
    Cl(f) = 0.00744262
    Cl(r) = 0.00184717

Time = 50s

DILUPBiCGStab:  Solving for Ux, Initial residual = 0.00899969, Final residual = 8.90162e-09, No Iterations 3
DILUPBiCGStab:  Solving for Uy, Initial residual = 0.0208657, Final residual = 4.67594e-09, No Iterations 3
DILUPBiCGStab:  Solving for Uz, Initial residual = 0.0222767, Final residual = 8.75937e-09, No Iterations 3
GAMG:  Solving for p, Initial residual = 0.312591, Final residual = 0.0236539, No Iterations 2
time step continuity errors : sum local = 0.00779007, global = 0.000641575, cumulative = -0.00834379
DILUPBiCGStab:  Solving for omega, Initial residual = 0.282479, Final residual = 8.46053e-09, No Iterations 36
DILUPBiCGStab:  Solving for k, Initial residual = 0.0675909, Final residual = 2.93641e-09, No Iterations 41
bounding k, min: -0.124149 max: 125.69 average: 0.22308
ExecutionTime = 269.351 s  ClockTime = 270 s

forceCoeffs forces write:
    Cm    = 0.00231489
    Cd    = 0.0161527
    Cl    = 0.0102569
    Cl(f) = 0.00744335
    Cl(r) = 0.00281357

Time = 51s

DILUPBiCGStab:  Solving for Ux, Initial residual = 0.00916002, Final residual = 2.60609e-09, No Iterations 3
DILUPBiCGStab:  Solving for Uy, Initial residual = 0.0195327, Final residual = 4.70466e-09, No Iterations 3
DILUPBiCGStab:  Solving for Uz, Initial residual = 0.0207218, Final residual = 8.99548e-09, No Iterations 3
GAMG:  Solving for p, Initial residual = 0.272469, Final residual = 0.0230126, No Iterations 2
time step continuity errors : sum local = 0.00724696, global = 0.000951148, cumulative = -0.00739264
DILUPBiCGStab:  Solving for omega, Initial residual = 0.215857, Final residual = 4.68702e-09, No Iterations 61
DILUPBiCGStab:  Solving for k, Initial residual = 0.11532, Final residual = 8.12517e-09, No Iterations 23
bounding k, min: -0.0717552 max: 129.517 average: 0.194865
ExecutionTime = 275.24 s  ClockTime = 276 s

forceCoeffs forces write:
    Cm    = 0.00126255
    Cd    = 0.0158484
    Cl    = 0.00709778
    Cl(f) = 0.00481144
    Cl(r) = 0.00228634

Time = 52s

DILUPBiCGStab:  Solving for Ux, Initial residual = 0.00842571, Final residual = 3.13072e-09, No Iterations 3
DILUPBiCGStab:  Solving for Uy, Initial residual = 0.0217216, Final residual = 5.4564e-09, No Iterations 3
DILUPBiCGStab:  Solving for Uz, Initial residual = 0.0236164, Final residual = 1.36911e-09, No Iterations 4
GAMG:  Solving for p, Initial residual = 0.258283, Final residual = 0.0197279, No Iterations 2
time step continuity errors : sum local = 0.00660148, global = 0.000930161, cumulative = -0.00646248
DILUPBiCGStab:  Solving for omega, Initial residual = 0.283779, Final residual = 7.73155e-09, No Iterations 46
DILUPBiCGStab:  Solving for k, Initial residual = 0.073426, Final residual = 8.90751e-09, No Iterations 42
ExecutionTime = 280.528 s  ClockTime = 281 s

forceCoeffs forces write:
    Cm    = 0.000955807
    Cd    = 0.014292
    Cl    = 0.00478939
    Cl(f) = 0.0033505
    Cl(r) = 0.00143889

Time = 53s

DILUPBiCGStab:  Solving for Ux, Initial residual = 0.00853254, Final residual = 1.78993e-09, No Iterations 3
DILUPBiCGStab:  Solving for Uy, Initial residual = 0.0200819, Final residual = 4.03305e-09, No Iterations 3
DILUPBiCGStab:  Solving for Uz, Initial residual = 0.0219497, Final residual = 5.33251e-09, No Iterations 3
GAMG:  Solving for p, Initial residual = 0.229251, Final residual = 0.0193599, No Iterations 2
time step continuity errors : sum local = 0.0064153, global = 0.00107873, cumulative = -0.00538376
DILUPBiCGStab:  Solving for omega, Initial residual = 0.220652, Final residual = 9.63025e-09, No Iterations 65
DILUPBiCGStab:  Solving for k, Initial residual = 0.123457, Final residual = 2.89351e-09, No Iterations 26
bounding k, min: -0.056108 max: 129.713 average: 0.194868
ExecutionTime = 285.77 s  ClockTime = 286 s

forceCoeffs forces write:
    Cm    = 0.00163325
    Cd    = 0.0135754
    Cl    = 0.00734966
    Cl(f) = 0.00530808
    Cl(r) = 0.00204158

Time = 54s

DILUPBiCGStab:  Solving for Ux, Initial residual = 0.00808402, Final residual = 1.90814e-09, No Iterations 3
DILUPBiCGStab:  Solving for Uy, Initial residual = 0.0222211, Final residual = 5.33494e-09, No Iterations 3
DILUPBiCGStab:  Solving for Uz, Initial residual = 0.0253976, Final residual = 5.73106e-09, No Iterations 3
GAMG:  Solving for p, Initial residual = 0.230224, Final residual = 0.0175088, No Iterations 2
time step continuity errors : sum local = 0.00669403, global = 0.000921959, cumulative = -0.0044618
DILUPBiCGStab:  Solving for omega, Initial residual = 0.283953, Final residual = 7.26748e-09, No Iterations 42
DILUPBiCGStab:  Solving for k, Initial residual = 0.0744081, Final residual = 8.24691e-09, No Iterations 41
bounding k, min: -0.0336225 max: 129.202 average: 0.22151
ExecutionTime = 290.641 s  ClockTime = 291 s

forceCoeffs forces write:
    Cm    = 0.00189699
    Cd    = 0.0125908
    Cl    = 0.00741097
    Cl(f) = 0.00560247
    Cl(r) = 0.0018085

Time = 55s

DILUPBiCGStab:  Solving for Ux, Initial residual = 0.00812602, Final residual = 4.57844e-09, No Iterations 3
DILUPBiCGStab:  Solving for Uy, Initial residual = 0.0177791, Final residual = 3.35407e-09, No Iterations 3
DILUPBiCGStab:  Solving for Uz, Initial residual = 0.0203409, Final residual = 4.03035e-09, No Iterations 3
GAMG:  Solving for p, Initial residual = 0.204479, Final residual = 0.0175188, No Iterations 2
time step continuity errors : sum local = 0.00626313, global = 0.000533105, cumulative = -0.00392869
DILUPBiCGStab:  Solving for omega, Initial residual = 0.205509, Final residual = 2.96049e-09, No Iterations 74
DILUPBiCGStab:  Solving for k, Initial residual = 0.115402, Final residual = 8.52819e-09, No Iterations 23
bounding k, min: -0.0168787 max: 127.374 average: 0.197731
ExecutionTime = 296.142 s  ClockTime = 297 s

forceCoeffs forces write:
    Cm    = 0.0018066
    Cd    = 0.0128167
    Cl    = 0.0084852
    Cl(f) = 0.0060492
    Cl(r) = 0.002436

Time = 56s

DILUPBiCGStab:  Solving for Ux, Initial residual = 0.00781602, Final residual = 2.83689e-09, No Iterations 3
DILUPBiCGStab:  Solving for Uy, Initial residual = 0.0190927, Final residual = 5.67922e-09, No Iterations 3
DILUPBiCGStab:  Solving for Uz, Initial residual = 0.0229233, Final residual = 1.12071e-09, No Iterations 4
GAMG:  Solving for p, Initial residual = 0.211358, Final residual = 0.0161299, No Iterations 2
time step continuity errors : sum local = 0.00587343, global = 9.90617e-06, cumulative = -0.00391879
DILUPBiCGStab:  Solving for omega, Initial residual = 0.262238, Final residual = 5.72152e-09, No Iterations 37
DILUPBiCGStab:  Solving for k, Initial residual = 0.075501, Final residual = 9.92797e-09, No Iterations 40
bounding k, min: -0.0324326 max: 129.541 average: 0.222171
ExecutionTime = 300.874 s  ClockTime = 301 s

forceCoeffs forces write:
    Cm    = 0.00209255
    Cd    = 0.0132139
    Cl    = 0.0123388
    Cl(f) = 0.00826195
    Cl(r) = 0.00407685

Time = 57s

DILUPBiCGStab:  Solving for Ux, Initial residual = 0.00783328, Final residual = 2.30076e-09, No Iterations 3
DILUPBiCGStab:  Solving for Uy, Initial residual = 0.0175035, Final residual = 3.05704e-09, No Iterations 3
DILUPBiCGStab:  Solving for Uz, Initial residual = 0.0196238, Final residual = 6.43071e-09, No Iterations 3
GAMG:  Solving for p, Initial residual = 0.186312, Final residual = 0.0157509, No Iterations 2
time step continuity errors : sum local = 0.00524961, global = -0.000546722, cumulative = -0.00446551
DILUPBiCGStab:  Solving for omega, Initial residual = 0.195131, Final residual = 9.60514e-09, No Iterations 61
DILUPBiCGStab:  Solving for k, Initial residual = 0.113053, Final residual = 9.75343e-09, No Iterations 23
bounding k, min: -0.0402813 max: 127.302 average: 0.195593
ExecutionTime = 306.275 s  ClockTime = 307 s

forceCoeffs forces write:
    Cm    = 0.00291955
    Cd    = 0.0140975
    Cl    = 0.0141915
    Cl(f) = 0.0100153
    Cl(r) = 0.00417618

Time = 58s

DILUPBiCGStab:  Solving for Ux, Initial residual = 0.00765017, Final residual = 3.70235e-09, No Iterations 3
DILUPBiCGStab:  Solving for Uy, Initial residual = 0.0181562, Final residual = 5.03279e-09, No Iterations 3
DILUPBiCGStab:  Solving for Uz, Initial residual = 0.0207255, Final residual = 7.92595e-09, No Iterations 3
GAMG:  Solving for p, Initial residual = 0.207364, Final residual = 0.0151844, No Iterations 2
time step continuity errors : sum local = 0.00533979, global = -0.00081733, cumulative = -0.00528284
DILUPBiCGStab:  Solving for omega, Initial residual = 0.275648, Final residual = 6.08864e-09, No Iterations 39
DILUPBiCGStab:  Solving for k, Initial residual = 0.0781874, Final residual = 6.90425e-09, No Iterations 45
ExecutionTime = 311.307 s  ClockTime = 312 s

forceCoeffs forces write:
    Cm    = 0.00355775
    Cd    = 0.0145649
    Cl    = 0.0107204
    Cl(f) = 0.00891797
    Cl(r) = 0.00180247

Time = 59s

DILUPBiCGStab:  Solving for Ux, Initial residual = 0.00765465, Final residual = 5.33088e-09, No Iterations 3
DILUPBiCGStab:  Solving for Uy, Initial residual = 0.0165482, Final residual = 2.7971e-09, No Iterations 3
DILUPBiCGStab:  Solving for Uz, Initial residual = 0.0176263, Final residual = 6.18529e-09, No Iterations 3
GAMG:  Solving for p, Initial residual = 0.189092, Final residual = 0.0158313, No Iterations 2
time step continuity errors : sum local = 0.00505042, global = -0.00103734, cumulative = -0.00632018
DILUPBiCGStab:  Solving for omega, Initial residual = 0.193788, Final residual = 9.17876e-09, No Iterations 55
DILUPBiCGStab:  Solving for k, Initial residual = 0.124383, Final residual = 4.27807e-09, No Iterations 21
bounding k, min: -0.132503 max: 129.532 average: 0.197755
ExecutionTime = 316.035 s  ClockTime = 316 s

forceCoeffs forces write:
    Cm    = 0.00383449
    Cd    = 0.0152658
    Cl    = 0.0117049
    Cl(f) = 0.00968696
    Cl(r) = 0.00201799

Time = 60s

DILUPBiCGStab:  Solving for Ux, Initial residual = 0.00722866, Final residual = 2.99864e-09, No Iterations 3
DILUPBiCGStab:  Solving for Uy, Initial residual = 0.0190983, Final residual = 8.49583e-09, No Iterations 3
DILUPBiCGStab:  Solving for Uz, Initial residual = 0.0200166, Final residual = 1.15963e-09, No Iterations 4
GAMG:  Solving for p, Initial residual = 0.210287, Final residual = 0.0156878, No Iterations 2
time step continuity errors : sum local = 0.00539723, global = -0.000998365, cumulative = -0.00731855
DILUPBiCGStab:  Solving for omega, Initial residual = 0.269099, Final residual = 9.55905e-09, No Iterations 38
DILUPBiCGStab:  Solving for k, Initial residual = 0.0733349, Final residual = 9.17969e-09, No Iterations 42
bounding k, min: -0.00236961 max: 130.711 average: 0.22751
ExecutionTime = 321.055 s  ClockTime = 321 s

forceCoeffs forces write:
    Cm    = 0.00329782
    Cd    = 0.015298
    Cl    = 0.0131854
    Cl(f) = 0.00989051
    Cl(r) = 0.00329488

Time = 61s

DILUPBiCGStab:  Solving for Ux, Initial residual = 0.00722519, Final residual = 1.00661e-09, No Iterations 3
DILUPBiCGStab:  Solving for Uy, Initial residual = 0.0168219, Final residual = 2.26275e-10, No Iterations 4
DILUPBiCGStab:  Solving for Uz, Initial residual = 0.0184091, Final residual = 2.76899e-09, No Iterations 3
GAMG:  Solving for p, Initial residual = 0.196017, Final residual = 0.0158836, No Iterations 2
time step continuity errors : sum local = 0.0048244, global = -0.000855538, cumulative = -0.00817409
DILUPBiCGStab:  Solving for omega, Initial residual = 0.178022, Final residual = 9.26829e-10, No Iterations 58
DILUPBiCGStab:  Solving for k, Initial residual = 0.117959, Final residual = 5.73623e-09, No Iterations 20
bounding k, min: -0.0831692 max: 130.943 average: 0.201684
ExecutionTime = 325.831 s  ClockTime = 326 s

forceCoeffs forces write:
    Cm    = 0.00285586
    Cd    = 0.0152786
    Cl    = 0.0123509
    Cl(f) = 0.00903131
    Cl(r) = 0.00331959

Time = 62s

DILUPBiCGStab:  Solving for Ux, Initial residual = 0.0068589, Final residual = 1.35331e-09, No Iterations 3
DILUPBiCGStab:  Solving for Uy, Initial residual = 0.0183401, Final residual = 7.40368e-09, No Iterations 3
DILUPBiCGStab:  Solving for Uz, Initial residual = 0.0202385, Final residual = 6.1091e-09, No Iterations 3
GAMG:  Solving for p, Initial residual = 0.222743, Final residual = 0.015118, No Iterations 2
time step continuity errors : sum local = 0.00482678, global = -0.000492801, cumulative = -0.00866689
DILUPBiCGStab:  Solving for omega, Initial residual = 0.254794, Final residual = 7.66403e-09, No Iterations 45
DILUPBiCGStab:  Solving for k, Initial residual = 0.068062, Final residual = 9.95923e-09, No Iterations 44
bounding k, min: -0.000725686 max: 131.346 average: 0.229919
ExecutionTime = 331.316 s  ClockTime = 332 s

forceCoeffs forces write:
    Cm    = 0.00274673
    Cd    = 0.0150159
    Cl    = 0.0128751
    Cl(f) = 0.0091843
    Cl(r) = 0.00369084

Time = 63s

DILUPBiCGStab:  Solving for Ux, Initial residual = 0.00672888, Final residual = 1.40268e-09, No Iterations 3
DILUPBiCGStab:  Solving for Uy, Initial residual = 0.0166798, Final residual = 6.81523e-09, No Iterations 3
DILUPBiCGStab:  Solving for Uz, Initial residual = 0.0176735, Final residual = 4.27143e-09, No Iterations 3
GAMG:  Solving for p, Initial residual = 0.207439, Final residual = 0.0151567, No Iterations 2
time step continuity errors : sum local = 0.00432505, global = -0.000105074, cumulative = -0.00877196
DILUPBiCGStab:  Solving for omega, Initial residual = 0.162978, Final residual = 8.84487e-09, No Iterations 52
DILUPBiCGStab:  Solving for k, Initial residual = 0.11017, Final residual = 5.31396e-09, No Iterations 21
bounding k, min: -0.0345395 max: 131.698 average: 0.200758
ExecutionTime = 337.594 s  ClockTime = 338 s

forceCoeffs forces write:
    Cm    = 0.00257015
    Cd    = 0.0149971
    Cl    = 0.0139614
    Cl(f) = 0.00955088
    Cl(r) = 0.00441057

Time = 64s

DILUPBiCGStab:  Solving for Ux, Initial residual = 0.00626911, Final residual = 3.29905e-09, No Iterations 3
DILUPBiCGStab:  Solving for Uy, Initial residual = 0.0169006, Final residual = 3.98174e-09, No Iterations 3
DILUPBiCGStab:  Solving for Uz, Initial residual = 0.0197691, Final residual = 6.69702e-09, No Iterations 3
GAMG:  Solving for p, Initial residual = 0.212566, Final residual = 0.0147419, No Iterations 2
time step continuity errors : sum local = 0.00463323, global = 0.000405694, cumulative = -0.00836627
DILUPBiCGStab:  Solving for omega, Initial residual = 0.244979, Final residual = 4.07893e-09, No Iterations 38
DILUPBiCGStab:  Solving for k, Initial residual = 0.061595, Final residual = 5.05292e-09, No Iterations 45
bounding k, min: -0.118254 max: 131.872 average: 0.232675
ExecutionTime = 342.583 s  ClockTime = 343 s

forceCoeffs forces write:
    Cm    = 0.0019544
    Cd    = 0.014649
    Cl    = 0.0101771
    Cl(f) = 0.00704293
    Cl(r) = 0.00313413

Time = 65s

DILUPBiCGStab:  Solving for Ux, Initial residual = 0.00644814, Final residual = 8.97991e-09, No Iterations 3
DILUPBiCGStab:  Solving for Uy, Initial residual = 0.0159755, Final residual = 7.76107e-09, No Iterations 3
DILUPBiCGStab:  Solving for Uz, Initial residual = 0.0178648, Final residual = 4.53227e-09, No Iterations 3
GAMG:  Solving for p, Initial residual = 0.187815, Final residual = 0.0148819, No Iterations 2
time step continuity errors : sum local = 0.00426798, global = 0.000724454, cumulative = -0.00764181
DILUPBiCGStab:  Solving for omega, Initial residual = 0.14809, Final residual = 9.21527e-09, No Iterations 59
DILUPBiCGStab:  Solving for k, Initial residual = 0.118606, Final residual = 8.17842e-09, No Iterations 22
bounding k, min: -0.0594448 max: 132.126 average: 0.200343
ExecutionTime = 347.603 s  ClockTime = 348 s

forceCoeffs forces write:
    Cm    = 0.00208841
    Cd    = 0.0150355
    Cl    = 0.0108197
    Cl(f) = 0.00749824
    Cl(r) = 0.00332142

Time = 66s

DILUPBiCGStab:  Solving for Ux, Initial residual = 0.00562494, Final residual = 2.44002e-09, No Iterations 3
DILUPBiCGStab:  Solving for Uy, Initial residual = 0.0170997, Final residual = 3.83967e-09, No Iterations 3
DILUPBiCGStab:  Solving for Uz, Initial residual = 0.0202509, Final residual = 1.01725e-09, No Iterations 4
GAMG:  Solving for p, Initial residual = 0.202618, Final residual = 0.0144714, No Iterations 2
time step continuity errors : sum local = 0.0047899, global = 0.000934313, cumulative = -0.0067075
DILUPBiCGStab:  Solving for omega, Initial residual = 0.258799, Final residual = 7.69782e-09, No Iterations 39
DILUPBiCGStab:  Solving for k, Initial residual = 0.0538231, Final residual = 9.98208e-09, No Iterations 42
bounding k, min: -0.0919698 max: 132.271 average: 0.23518
ExecutionTime = 352.487 s  ClockTime = 353 s

forceCoeffs forces write:
    Cm    = 0.00202197
    Cd    = 0.0146354
    Cl    = 0.0134405
    Cl(f) = 0.00874223
    Cl(r) = 0.00469829

Time = 67s

DILUPBiCGStab:  Solving for Ux, Initial residual = 0.00623328, Final residual = 9.54451e-10, No Iterations 3
DILUPBiCGStab:  Solving for Uy, Initial residual = 0.0167328, Final residual = 2.08534e-09, No Iterations 3
DILUPBiCGStab:  Solving for Uz, Initial residual = 0.0181989, Final residual = 3.18112e-09, No Iterations 3
GAMG:  Solving for p, Initial residual = 0.173075, Final residual = 0.0142818, No Iterations 2
time step continuity errors : sum local = 0.00429374, global = 0.000977736, cumulative = -0.00572976
DILUPBiCGStab:  Solving for omega, Initial residual = 0.142746, Final residual = 4.43372e-09, No Iterations 56
DILUPBiCGStab:  Solving for k, Initial residual = 0.123713, Final residual = 9.0353e-09, No Iterations 21
bounding k, min: -0.111149 max: 132.58 average: 0.200177
ExecutionTime = 357.155 s  ClockTime = 358 s

forceCoeffs forces write:
    Cm    = 0.00167818
    Cd    = 0.0145341
    Cl    = 0.0126365
    Cl(f) = 0.00799644
    Cl(r) = 0.00464008

Time = 68s

DILUPBiCGStab:  Solving for Ux, Initial residual = 0.00512329, Final residual = 1.70951e-09, No Iterations 3
DILUPBiCGStab:  Solving for Uy, Initial residual = 0.0164474, Final residual = 4.51787e-09, No Iterations 3
DILUPBiCGStab:  Solving for Uz, Initial residual = 0.0192518, Final residual = 7.11772e-10, No Iterations 4
GAMG:  Solving for p, Initial residual = 0.192429, Final residual = 0.0128592, No Iterations 2
time step continuity errors : sum local = 0.00435639, global = 0.00086957, cumulative = -0.00486019
DILUPBiCGStab:  Solving for omega, Initial residual = 0.306558, Final residual = 9.10187e-09, No Iterations 40
DILUPBiCGStab:  Solving for k, Initial residual = 0.048561, Final residual = 7.92357e-09, No Iterations 46
bounding k, min: -0.0490462 max: 132.774 average: 0.238257
ExecutionTime = 362.231 s  ClockTime = 363 s

forceCoeffs forces write:
    Cm    = 0.00149872
    Cd    = 0.0142997
    Cl    = 0.0115519
    Cl(f) = 0.00727469
    Cl(r) = 0.00427725

Time = 69s

DILUPBiCGStab:  Solving for Ux, Initial residual = 0.00638219, Final residual = 8.81274e-09, No Iterations 3
DILUPBiCGStab:  Solving for Uy, Initial residual = 0.0182366, Final residual = 2.21275e-09, No Iterations 3
DILUPBiCGStab:  Solving for Uz, Initial residual = 0.018742, Final residual = 1.66667e-09, No Iterations 3
GAMG:  Solving for p, Initial residual = 0.160599, Final residual = 0.0125491, No Iterations 2
time step continuity errors : sum local = 0.00385553, global = 0.000691858, cumulative = -0.00416834
DILUPBiCGStab:  Solving for omega, Initial residual = 0.140119, Final residual = 8.42737e-10, No Iterations 65
DILUPBiCGStab:  Solving for k, Initial residual = 0.134791, Final residual = 7.47941e-09, No Iterations 20
bounding k, min: -0.177715 max: 133.139 average: 0.201162
ExecutionTime = 367.694 s  ClockTime = 368 s

forceCoeffs forces write:
    Cm    = 0.00225576
    Cd    = 0.0146701
    Cl    = 0.0143674
    Cl(f) = 0.00943946
    Cl(r) = 0.00492794

Time = 70s

DILUPBiCGStab:  Solving for Ux, Initial residual = 0.00514898, Final residual = 1.83128e-09, No Iterations 3
DILUPBiCGStab:  Solving for Uy, Initial residual = 0.0169034, Final residual = 3.68742e-09, No Iterations 3
DILUPBiCGStab:  Solving for Uz, Initial residual = 0.0197359, Final residual = 8.28318e-09, No Iterations 3
GAMG:  Solving for p, Initial residual = 0.195499, Final residual = 0.011669, No Iterations 2
time step continuity errors : sum local = 0.0041482, global = 0.000417557, cumulative = -0.00375078
DILUPBiCGStab:  Solving for omega, Initial residual = 0.324945, Final residual = 1.13618e-09, No Iterations 67
DILUPBiCGStab:  Solving for k, Initial residual = 0.0517197, Final residual = 4.67522e-09, No Iterations 44
bounding k, min: -0.0478156 max: 133.325 average: 0.241439
ExecutionTime = 373.866 s  ClockTime = 374 s

forceCoeffs forces write:
    Cm    = 0.00263865
    Cd    = 0.0145091
    Cl    = 0.0139936
    Cl(f) = 0.00963543
    Cl(r) = 0.00435813

Time = 71s

DILUPBiCGStab:  Solving for Ux, Initial residual = 0.00660424, Final residual = 8.66899e-09, No Iterations 3
DILUPBiCGStab:  Solving for Uy, Initial residual = 0.0182319, Final residual = 1.40754e-09, No Iterations 3
DILUPBiCGStab:  Solving for Uz, Initial residual = 0.0189696, Final residual = 2.61081e-09, No Iterations 3
GAMG:  Solving for p, Initial residual = 0.160067, Final residual = 0.0118877, No Iterations 2
time step continuity errors : sum local = 0.00371605, global = 8.91024e-05, cumulative = -0.00366168
DILUPBiCGStab:  Solving for omega, Initial residual = 0.218526, Final residual = 9.48194e-09, No Iterations 61
DILUPBiCGStab:  Solving for k, Initial residual = 0.141167, Final residual = 9.00536e-09, No Iterations 21
bounding k, min: -0.15475 max: 133.671 average: 0.205233
ExecutionTime = 378.758 s  ClockTime = 379 s

forceCoeffs forces write:
    Cm    = 0.0029596
    Cd    = 0.0149785
    Cl    = 0.013962
    Cl(f) = 0.00994062
    Cl(r) = 0.00402142

Time = 72s

DILUPBiCGStab:  Solving for Ux, Initial residual = 0.00529003, Final residual = 1.93157e-09, No Iterations 3
DILUPBiCGStab:  Solving for Uy, Initial residual = 0.0182568, Final residual = 5.45925e-09, No Iterations 3
DILUPBiCGStab:  Solving for Uz, Initial residual = 0.0204813, Final residual = 8.78656e-10, No Iterations 4
GAMG:  Solving for p, Initial residual = 0.201779, Final residual = 0.0108228, No Iterations 2
time step continuity errors : sum local = 0.00393488, global = -0.000253754, cumulative = -0.00391543
DILUPBiCGStab:  Solving for omega, Initial residual = 0.309847, Final residual = 8.5477e-09, No Iterations 56
DILUPBiCGStab:  Solving for k, Initial residual = 0.0531285, Final residual = 5.40131e-09, No Iterations 44
bounding k, min: -0.00647525 max: 133.807 average: 0.245959
ExecutionTime = 384.546 s  ClockTime = 385 s

forceCoeffs forces write:
    Cm    = 0.00257844
    Cd    = 0.0146725
    Cl    = 0.0150362
    Cl(f) = 0.0100965
    Cl(r) = 0.00493964

Time = 73s

DILUPBiCGStab:  Solving for Ux, Initial residual = 0.00655388, Final residual = 5.71661e-09, No Iterations 3
DILUPBiCGStab:  Solving for Uy, Initial residual = 0.0187202, Final residual = 1.96631e-09, No Iterations 3
DILUPBiCGStab:  Solving for Uz, Initial residual = 0.0190966, Final residual = 2.53642e-09, No Iterations 3
GAMG:  Solving for p, Initial residual = 0.16588, Final residual = 0.0115088, No Iterations 2
time step continuity errors : sum local = 0.00358416, global = -0.00053124, cumulative = -0.00444667
DILUPBiCGStab:  Solving for omega, Initial residual = 0.182924, Final residual = 6.019e-09, No Iterations 58
DILUPBiCGStab:  Solving for k, Initial residual = 0.133909, Final residual = 1.28882e-09, No Iterations 29
bounding k, min: -0.135555 max: 134.116 average: 0.207228
ExecutionTime = 389.896 s  ClockTime = 390 s

forceCoeffs forces write:
    Cm    = 0.00255143
    Cd    = 0.014427
    Cl    = 0.0151726
    Cl(f) = 0.0101377
    Cl(r) = 0.00503485

Time = 74s

DILUPBiCGStab:  Solving for Ux, Initial residual = 0.00500526, Final residual = 1.6076e-09, No Iterations 3
DILUPBiCGStab:  Solving for Uy, Initial residual = 0.0177333, Final residual = 8.73632e-09, No Iterations 3
DILUPBiCGStab:  Solving for Uz, Initial residual = 0.0200008, Final residual = 2.59608e-09, No Iterations 4
GAMG:  Solving for p, Initial residual = 0.213154, Final residual = 0.0106298, No Iterations 2
time step continuity errors : sum local = 0.00379602, global = -0.000659915, cumulative = -0.00510659
DILUPBiCGStab:  Solving for omega, Initial residual = 0.291302, Final residual = 8.97269e-09, No Iterations 45
DILUPBiCGStab:  Solving for k, Initial residual = 0.052034, Final residual = 9.85931e-09, No Iterations 42
ExecutionTime = 395.8 s  ClockTime = 396 s

forceCoeffs forces write:
    Cm    = 0.00255573
    Cd    = 0.0142222
    Cl    = 0.0139782
    Cl(f) = 0.00954482
    Cl(r) = 0.00443337

Time = 75s

DILUPBiCGStab:  Solving for Ux, Initial residual = 0.00624522, Final residual = 5.7792e-09, No Iterations 3
DILUPBiCGStab:  Solving for Uy, Initial residual = 0.0186231, Final residual = 2.39937e-09, No Iterations 3
DILUPBiCGStab:  Solving for Uz, Initial residual = 0.0188832, Final residual = 2.20585e-09, No Iterations 3
GAMG:  Solving for p, Initial residual = 0.172265, Final residual = 0.0114439, No Iterations 2
time step continuity errors : sum local = 0.00342313, global = -0.000723904, cumulative = -0.00583049
DILUPBiCGStab:  Solving for omega, Initial residual = 0.12197, Final residual = 6.40282e-09, No Iterations 52
DILUPBiCGStab:  Solving for k, Initial residual = 0.131816, Final residual = 9.06321e-09, No Iterations 24
bounding k, min: -0.0851826 max: 134.458 average: 0.209774
ExecutionTime = 401.104 s  ClockTime = 402 s

forceCoeffs forces write:
    Cm    = 0.00244774
    Cd    = 0.0145632
    Cl    = 0.0144595
    Cl(f) = 0.00967749
    Cl(r) = 0.00478202

Time = 76s

DILUPBiCGStab:  Solving for Ux, Initial residual = 0.0046521, Final residual = 1.0857e-09, No Iterations 3
DILUPBiCGStab:  Solving for Uy, Initial residual = 0.0174971, Final residual = 4.054e-09, No Iterations 3
DILUPBiCGStab:  Solving for Uz, Initial residual = 0.0198127, Final residual = 8.88815e-09, No Iterations 3
GAMG:  Solving for p, Initial residual = 0.234087, Final residual = 0.0114869, No Iterations 2
time step continuity errors : sum local = 0.00392109, global = -0.000663798, cumulative = -0.00649429
DILUPBiCGStab:  Solving for omega, Initial residual = 0.270775, Final residual = 3.87047e-09, No Iterations 36
DILUPBiCGStab:  Solving for k, Initial residual = 0.0511913, Final residual = 4.41469e-09, No Iterations 44
ExecutionTime = 406.645 s  ClockTime = 407 s

forceCoeffs forces write:
    Cm    = 0.00221276
    Cd    = 0.0142572
    Cl    = 0.0139637
    Cl(f) = 0.00919461
    Cl(r) = 0.00476908

Time = 77s

DILUPBiCGStab:  Solving for Ux, Initial residual = 0.00604712, Final residual = 4.76885e-09, No Iterations 3
DILUPBiCGStab:  Solving for Uy, Initial residual = 0.01835, Final residual = 1.51285e-09, No Iterations 3
DILUPBiCGStab:  Solving for Uz, Initial residual = 0.0181092, Final residual = 1.28561e-09, No Iterations 3
GAMG:  Solving for p, Initial residual = 0.18509, Final residual = 0.0128704, No Iterations 2
time step continuity errors : sum local = 0.00365964, global = -0.000558377, cumulative = -0.00705266
DILUPBiCGStab:  Solving for omega, Initial residual = 0.119702, Final residual = 3.48234e-09, No Iterations 52
DILUPBiCGStab:  Solving for k, Initial residual = 0.13373, Final residual = 8.28063e-09, No Iterations 23
bounding k, min: -0.0443822 max: 134.653 average: 0.209769
ExecutionTime = 411.235 s  ClockTime = 412 s

forceCoeffs forces write:
    Cm    = 0.00251479
    Cd    = 0.0146835
    Cl    = 0.0135541
    Cl(f) = 0.00929183
    Cl(r) = 0.00426225

Time = 78s

DILUPBiCGStab:  Solving for Ux, Initial residual = 0.00478858, Final residual = 1.24493e-09, No Iterations 3
DILUPBiCGStab:  Solving for Uy, Initial residual = 0.0181464, Final residual = 3.96973e-10, No Iterations 4
DILUPBiCGStab:  Solving for Uz, Initial residual = 0.0194, Final residual = 5.24034e-10, No Iterations 4
GAMG:  Solving for p, Initial residual = 0.242262, Final residual = 0.0109856, No Iterations 2
time step continuity errors : sum local = 0.00377812, global = -0.000368153, cumulative = -0.00742082
DILUPBiCGStab:  Solving for omega, Initial residual = 0.277818, Final residual = 5.68762e-09, No Iterations 36
DILUPBiCGStab:  Solving for k, Initial residual = 0.0511858, Final residual = 8.18614e-09, No Iterations 44
ExecutionTime = 416.095 s  ClockTime = 417 s

forceCoeffs forces write:
    Cm    = 0.00218997
    Cd    = 0.0145531
    Cl    = 0.013256
    Cl(f) = 0.00881799
    Cl(r) = 0.00443805

Time = 79s

DILUPBiCGStab:  Solving for Ux, Initial residual = 0.00639021, Final residual = 7.3851e-09, No Iterations 3
DILUPBiCGStab:  Solving for Uy, Initial residual = 0.0191364, Final residual = 9.08449e-10, No Iterations 3
DILUPBiCGStab:  Solving for Uz, Initial residual = 0.0188263, Final residual = 2.09055e-09, No Iterations 3
GAMG:  Solving for p, Initial residual = 0.193131, Final residual = 0.0117499, No Iterations 2
time step continuity errors : sum local = 0.00339572, global = -0.000167831, cumulative = -0.00758865
DILUPBiCGStab:  Solving for omega, Initial residual = 0.126683, Final residual = 8.67818e-09, No Iterations 53
DILUPBiCGStab:  Solving for k, Initial residual = 0.133954, Final residual = 5.95206e-09, No Iterations 27
bounding k, min: -0.0473222 max: 134.744 average: 0.211569
ExecutionTime = 420.837 s  ClockTime = 421 s

forceCoeffs forces write:
    Cm    = 0.00208186
    Cd    = 0.0153571
    Cl    = 0.0124535
    Cl(f) = 0.00830863
    Cl(r) = 0.00414491

Time = 80s

DILUPBiCGStab:  Solving for Ux, Initial residual = 0.00477869, Final residual = 1.21447e-09, No Iterations 3
DILUPBiCGStab:  Solving for Uy, Initial residual = 0.0178384, Final residual = 6.25707e-09, No Iterations 3
DILUPBiCGStab:  Solving for Uz, Initial residual = 0.0195359, Final residual = 3.45748e-10, No Iterations 4
GAMG:  Solving for p, Initial residual = 0.248661, Final residual = 0.010831, No Iterations 2
time step continuity errors : sum local = 0.0037314, global = 7.22907e-05, cumulative = -0.00751636
DILUPBiCGStab:  Solving for omega, Initial residual = 0.291219, Final residual = 7.61825e-09, No Iterations 41
DILUPBiCGStab:  Solving for k, Initial residual = 0.0554944, Final residual = 6.73518e-09, No Iterations 43
bounding k, min: -0.00208971 max: 134.672 average: 0.255162
ExecutionTime = 426.23 s  ClockTime = 427 s

forceCoeffs forces write:
    Cm    = 0.00206787
    Cd    = 0.0148338
    Cl    = 0.0120124
    Cl(f) = 0.00807409
    Cl(r) = 0.00393835

Time = 81s

DILUPBiCGStab:  Solving for Ux, Initial residual = 0.00573397, Final residual = 5.50532e-09, No Iterations 3
DILUPBiCGStab:  Solving for Uy, Initial residual = 0.0184791, Final residual = 1.3388e-09, No Iterations 3
DILUPBiCGStab:  Solving for Uz, Initial residual = 0.0183307, Final residual = 2.26274e-09, No Iterations 3
GAMG:  Solving for p, Initial residual = 0.197701, Final residual = 0.011996, No Iterations 2
time step continuity errors : sum local = 0.00346186, global = 0.000256439, cumulative = -0.00725992
DILUPBiCGStab:  Solving for omega, Initial residual = 0.142649, Final residual = 4.30571e-09, No Iterations 52
DILUPBiCGStab:  Solving for k, Initial residual = 0.131319, Final residual = 9.05255e-09, No Iterations 22
bounding k, min: -0.0536597 max: 134.823 average: 0.212951
ExecutionTime = 430.843 s  ClockTime = 431 s

forceCoeffs forces write:
    Cm    = 0.0020788
    Cd    = 0.014817
    Cl    = 0.0137325
    Cl(f) = 0.00894504
    Cl(r) = 0.00478745

Time = 82s

DILUPBiCGStab:  Solving for Ux, Initial residual = 0.00466246, Final residual = 7.8139e-11, No Iterations 4
DILUPBiCGStab:  Solving for Uy, Initial residual = 0.0177108, Final residual = 3.08402e-09, No Iterations 3
DILUPBiCGStab:  Solving for Uz, Initial residual = 0.0194094, Final residual = 5.42378e-09, No Iterations 3
GAMG:  Solving for p, Initial residual = 0.248146, Final residual = 0.0111936, No Iterations 2
time step continuity errors : sum local = 0.00373296, global = 0.00042766, cumulative = -0.00683226
DILUPBiCGStab:  Solving for omega, Initial residual = 0.273129, Final residual = 7.49213e-09, No Iterations 40
DILUPBiCGStab:  Solving for k, Initial residual = 0.0548119, Final residual = 7.96127e-09, No Iterations 44
ExecutionTime = 436.222 s  ClockTime = 437 s

forceCoeffs forces write:
    Cm    = 0.00188384
    Cd    = 0.014474
    Cl    = 0.0149818
    Cl(f) = 0.00937472
    Cl(r) = 0.00560704

Time = 83s

[...]
DILUPBiCGStab:  Solving for k, Initial residual = 0.115364, Final residual = 9.01737e-09, No Iterations 29
bounding k, min: -0.0592795 max: 133.919 average: 0.237903
ExecutionTime = 2428.48 s  ClockTime = 2431 s

forceCoeffs forces write:
    Cm    = 0.00200378
    Cd    = 0.0117497
    Cl    = 0.0109176
    Cl(f) = 0.00746257
    Cl(r) = 0.00345501

Time = 484s

DILUPBiCGStab:  Solving for Ux, Initial residual = 0.00280705, Final residual = 2.4642e-09, No Iterations 3
DILUPBiCGStab:  Solving for Uy, Initial residual = 0.0133844, Final residual = 2.04118e-10, No Iterations 4
DILUPBiCGStab:  Solving for Uz, Initial residual = 0.015547, Final residual = 2.72415e-09, No Iterations 3
GAMG:  Solving for p, Initial residual = 0.20228, Final residual = 0.00826536, No Iterations 2
time step continuity errors : sum local = 0.00273408, global = -2.55712e-05, cumulative = -0.0236588
DILUPBiCGStab:  Solving for omega, Initial residual = 0.28772, Final residual = 7.13577e-09, No Iterations 37
DILUPBiCGStab:  Solving for k, Initial residual = 0.0624607, Final residual = 2.11342e-09, No Iterations 38
ExecutionTime = 2433.23 s  ClockTime = 2436 s

forceCoeffs forces write:
    Cm    = 0.00202369
    Cd    = 0.0122324
    Cl    = 0.0124196
    Cl(f) = 0.00823349
    Cl(r) = 0.00418611

Time = 485s

DILUPBiCGStab:  Solving for Ux, Initial residual = 0.00371327, Final residual = 3.29832e-09, No Iterations 3
DILUPBiCGStab:  Solving for Uy, Initial residual = 0.014447, Final residual = 1.66818e-09, No Iterations 3
DILUPBiCGStab:  Solving for Uz, Initial residual = 0.015053, Final residual = 1.4539e-09, No Iterations 3
GAMG:  Solving for p, Initial residual = 0.177588, Final residual = 0.00882034, No Iterations 2
time step continuity errors : sum local = 0.00263546, global = -5.30376e-05, cumulative = -0.0237118
DILUPBiCGStab:  Solving for omega, Initial residual = 0.159177, Final residual = 8.72958e-09, No Iterations 49
DILUPBiCGStab:  Solving for k, Initial residual = 0.118148, Final residual = 4.50817e-09, No Iterations 30
bounding k, min: -0.0591992 max: 133.929 average: 0.237848
ExecutionTime = 2438.14 s  ClockTime = 2440 s

forceCoeffs forces write:
    Cm    = 0.00248855
    Cd    = 0.0160576
    Cl    = 0.0124708
    Cl(f) = 0.00872396
    Cl(r) = 0.00374685

Time = 486s

DILUPBiCGStab:  Solving for Ux, Initial residual = 0.00286944, Final residual = 1.73852e-09, No Iterations 3
DILUPBiCGStab:  Solving for Uy, Initial residual = 0.0137069, Final residual = 2.39842e-09, No Iterations 3
DILUPBiCGStab:  Solving for Uz, Initial residual = 0.0160153, Final residual = 2.82142e-09, No Iterations 3
GAMG:  Solving for p, Initial residual = 0.217175, Final residual = 0.00916154, No Iterations 2
time step continuity errors : sum local = 0.00309956, global = -2.46777e-05, cumulative = -0.0237365
DILUPBiCGStab:  Solving for omega, Initial residual = 0.292408, Final residual = 8.82835e-09, No Iterations 39
DILUPBiCGStab:  Solving for k, Initial residual = 0.062603, Final residual = 3.24202e-09, No Iterations 36
ExecutionTime = 2442.62 s  ClockTime = 2445 s

forceCoeffs forces write:
    Cm    = 0.00230409
    Cd    = 0.0152947
    Cl    = 0.0100854
    Cl(f) = 0.00734679
    Cl(r) = 0.0027386

Time = 487s

DILUPBiCGStab:  Solving for Ux, Initial residual = 0.00351424, Final residual = 2.92103e-09, No Iterations 3
DILUPBiCGStab:  Solving for Uy, Initial residual = 0.0139946, Final residual = 1.19577e-09, No Iterations 3
DILUPBiCGStab:  Solving for Uz, Initial residual = 0.0150179, Final residual = 1.20614e-09, No Iterations 3
GAMG:  Solving for p, Initial residual = 0.180455, Final residual = 0.0093191, No Iterations 2
time step continuity errors : sum local = 0.00289327, global = -2.91636e-05, cumulative = -0.0237657
DILUPBiCGStab:  Solving for omega, Initial residual = 0.158444, Final residual = 8.80083e-09, No Iterations 48
DILUPBiCGStab:  Solving for k, Initial residual = 0.115148, Final residual = 8.37544e-09, No Iterations 31
bounding k, min: -0.0587296 max: 133.929 average: 0.238458
ExecutionTime = 2447.34 s  ClockTime = 2450 s

forceCoeffs forces write:
    Cm    = 0.00166274
    Cd    = 0.0107894
    Cl    = 0.00936784
    Cl(f) = 0.00634666
    Cl(r) = 0.00302118

Time = 488s

DILUPBiCGStab:  Solving for Ux, Initial residual = 0.00287405, Final residual = 1.10385e-09, No Iterations 3
DILUPBiCGStab:  Solving for Uy, Initial residual = 0.0133868, Final residual = 2.31545e-09, No Iterations 3
DILUPBiCGStab:  Solving for Uz, Initial residual = 0.0160617, Final residual = 3.81798e-09, No Iterations 3
GAMG:  Solving for p, Initial residual = 0.214067, Final residual = 0.00830043, No Iterations 2
time step continuity errors : sum local = 0.0028188, global = -3.05763e-06, cumulative = -0.0237687
DILUPBiCGStab:  Solving for omega, Initial residual = 0.292936, Final residual = 9.04048e-09, No Iterations 38
DILUPBiCGStab:  Solving for k, Initial residual = 0.0629428, Final residual = 1.96592e-09, No Iterations 36
ExecutionTime = 2451.83 s  ClockTime = 2454 s

forceCoeffs forces write:
    Cm    = 0.00168692
    Cd    = 0.011525
    Cl    = 0.0116856
    Cl(f) = 0.00752971
    Cl(r) = 0.00415588

Time = 489s

DILUPBiCGStab:  Solving for Ux, Initial residual = 0.00364219, Final residual = 3.1942e-09, No Iterations 3
DILUPBiCGStab:  Solving for Uy, Initial residual = 0.0144372, Final residual = 1.19074e-09, No Iterations 3
DILUPBiCGStab:  Solving for Uz, Initial residual = 0.0151905, Final residual = 1.16876e-09, No Iterations 3
GAMG:  Solving for p, Initial residual = 0.186298, Final residual = 0.00885089, No Iterations 2
time step continuity errors : sum local = 0.00266946, global = -1.65187e-05, cumulative = -0.0237852
DILUPBiCGStab:  Solving for omega, Initial residual = 0.153342, Final residual = 9.6513e-09, No Iterations 49
DILUPBiCGStab:  Solving for k, Initial residual = 0.119592, Final residual = 3.41786e-09, No Iterations 31
bounding k, min: -0.0595872 max: 133.981 average: 0.239092
ExecutionTime = 2456.52 s  ClockTime = 2459 s

forceCoeffs forces write:
    Cm    = 0.00285102
    Cd    = 0.0173931
    Cl    = 0.0126279
    Cl(f) = 0.00916499
    Cl(r) = 0.00346296

Time = 490s

DILUPBiCGStab:  Solving for Ux, Initial residual = 0.00291442, Final residual = 9.25553e-10, No Iterations 3
DILUPBiCGStab:  Solving for Uy, Initial residual = 0.0134289, Final residual = 2.56037e-09, No Iterations 3
DILUPBiCGStab:  Solving for Uz, Initial residual = 0.015773, Final residual = 3.36738e-09, No Iterations 3
GAMG:  Solving for p, Initial residual = 0.218778, Final residual = 0.00927123, No Iterations 2
time step continuity errors : sum local = 0.00313553, global = 5.78428e-06, cumulative = -0.0237795
DILUPBiCGStab:  Solving for omega, Initial residual = 0.301116, Final residual = 8.1467e-09, No Iterations 40
DILUPBiCGStab:  Solving for k, Initial residual = 0.0641978, Final residual = 1.7063e-09, No Iterations 38
ExecutionTime = 2461.28 s  ClockTime = 2464 s

forceCoeffs forces write:
    Cm    = 0.00264706
    Cd    = 0.016163
    Cl    = 0.00914679
    Cl(f) = 0.00722045
    Cl(r) = 0.00192634

Time = 491s

DILUPBiCGStab:  Solving for Ux, Initial residual = 0.00387399, Final residual = 3.67074e-09, No Iterations 3
DILUPBiCGStab:  Solving for Uy, Initial residual = 0.0148218, Final residual = 1.09216e-09, No Iterations 3
DILUPBiCGStab:  Solving for Uz, Initial residual = 0.0156706, Final residual = 1.2801e-09, No Iterations 3
GAMG:  Solving for p, Initial residual = 0.181793, Final residual = 0.00950044, No Iterations 2
time step continuity errors : sum local = 0.00289482, global = -3.03035e-05, cumulative = -0.0238098
DILUPBiCGStab:  Solving for omega, Initial residual = 0.167181, Final residual = 4.57046e-09, No Iterations 52
DILUPBiCGStab:  Solving for k, Initial residual = 0.119748, Final residual = 6.64038e-09, No Iterations 30
bounding k, min: -0.0587475 max: 134.023 average: 0.239872
ExecutionTime = 2466.22 s  ClockTime = 2469 s

forceCoeffs forces write:
    Cm    = 0.00178746
    Cd    = 0.010547
    Cl    = 0.00845824
    Cl(f) = 0.00601659
    Cl(r) = 0.00244166

Time = 492s

DILUPBiCGStab:  Solving for Ux, Initial residual = 0.0030829, Final residual = 9.04374e-09, No Iterations 3
DILUPBiCGStab:  Solving for Uy, Initial residual = 0.014782, Final residual = 2.60606e-09, No Iterations 3
DILUPBiCGStab:  Solving for Uz, Initial residual = 0.0176331, Final residual = 2.95958e-09, No Iterations 3
GAMG:  Solving for p, Initial residual = 0.223646, Final residual = 0.00936387, No Iterations 2
time step continuity errors : sum local = 0.00320566, global = 1.01296e-06, cumulative = -0.0238088
DILUPBiCGStab:  Solving for omega, Initial residual = 0.303749, Final residual = 4.8785e-09, No Iterations 41
DILUPBiCGStab:  Solving for k, Initial residual = 0.0638517, Final residual = 7.16365e-09, No Iterations 36
ExecutionTime = 2470.82 s  ClockTime = 2473 s

forceCoeffs forces write:
    Cm    = 0.00155399
    Cd    = 0.0111802
    Cl    = 0.0115917
    Cl(f) = 0.00734986
    Cl(r) = 0.00424187

Time = 493s

DILUPBiCGStab:  Solving for Ux, Initial residual = 0.00376778, Final residual = 3.5654e-09, No Iterations 3
DILUPBiCGStab:  Solving for Uy, Initial residual = 0.0147805, Final residual = 1.40284e-09, No Iterations 3
DILUPBiCGStab:  Solving for Uz, Initial residual = 0.0159904, Final residual = 1.42933e-09, No Iterations 3
GAMG:  Solving for p, Initial residual = 0.195168, Final residual = 0.00973389, No Iterations 2
time step continuity errors : sum local = 0.00301094, global = -1.60986e-05, cumulative = -0.0238249
DILUPBiCGStab:  Solving for omega, Initial residual = 0.149919, Final residual = 2.50713e-09, No Iterations 52
DILUPBiCGStab:  Solving for k, Initial residual = 0.117141, Final residual = 8.54411e-09, No Iterations 29
bounding k, min: -0.0600628 max: 134.078 average: 0.242481
ExecutionTime = 2475.61 s  ClockTime = 2478 s

forceCoeffs forces write:
    Cm    = 0.00251121
    Cd    = 0.0160254
    Cl    = 0.0121888
    Cl(f) = 0.00860563
    Cl(r) = 0.0035832

Time = 494s

DILUPBiCGStab:  Solving for Ux, Initial residual = 0.00279836, Final residual = 7.97731e-09, No Iterations 3
DILUPBiCGStab:  Solving for Uy, Initial residual = 0.0135606, Final residual = 8.35818e-09, No Iterations 3
DILUPBiCGStab:  Solving for Uz, Initial residual = 0.0160543, Final residual = 3.11658e-09, No Iterations 3
GAMG:  Solving for p, Initial residual = 0.220509, Final residual = 0.00910447, No Iterations 2
time step continuity errors : sum local = 0.0031626, global = -2.71626e-06, cumulative = -0.0238276
DILUPBiCGStab:  Solving for omega, Initial residual = 0.29288, Final residual = 9.34999e-09, No Iterations 39
DILUPBiCGStab:  Solving for k, Initial residual = 0.0636962, Final residual = 3.14128e-09, No Iterations 36
ExecutionTime = 2480.2 s  ClockTime = 2483 s

forceCoeffs forces write:
    Cm    = 0.00254713
    Cd    = 0.0152515
    Cl    = 0.0081072
    Cl(f) = 0.00660073
    Cl(r) = 0.00150647

Time = 495s

DILUPBiCGStab:  Solving for Ux, Initial residual = 0.00351607, Final residual = 3.0914e-09, No Iterations 3
DILUPBiCGStab:  Solving for Uy, Initial residual = 0.0138524, Final residual = 1.29359e-09, No Iterations 3
DILUPBiCGStab:  Solving for Uz, Initial residual = 0.0150195, Final residual = 1.25608e-09, No Iterations 3
GAMG:  Solving for p, Initial residual = 0.178816, Final residual = 0.00914962, No Iterations 2
time step continuity errors : sum local = 0.00280667, global = -2.25114e-05, cumulative = -0.0238501
DILUPBiCGStab:  Solving for omega, Initial residual = 0.170829, Final residual = 9.46845e-09, No Iterations 47
DILUPBiCGStab:  Solving for k, Initial residual = 0.112101, Final residual = 4.6916e-09, No Iterations 32
bounding k, min: -0.0589854 max: 134.179 average: 0.242826
ExecutionTime = 2484.94 s  ClockTime = 2487 s

forceCoeffs forces write:
    Cm    = 0.00185202
    Cd    = 0.0119549
    Cl    = 0.00778163
    Cl(f) = 0.00574284
    Cl(r) = 0.00203879

Time = 496s

DILUPBiCGStab:  Solving for Ux, Initial residual = 0.00301164, Final residual = 1.17089e-09, No Iterations 3
DILUPBiCGStab:  Solving for Uy, Initial residual = 0.013844, Final residual = 2.94973e-09, No Iterations 3
DILUPBiCGStab:  Solving for Uz, Initial residual = 0.0163029, Final residual = 9.26017e-09, No Iterations 3
GAMG:  Solving for p, Initial residual = 0.212403, Final residual = 0.00853882, No Iterations 2
time step continuity errors : sum local = 0.0028278, global = -6.62441e-06, cumulative = -0.0238567
DILUPBiCGStab:  Solving for omega, Initial residual = 0.267297, Final residual = 9.27771e-09, No Iterations 44
DILUPBiCGStab:  Solving for k, Initial residual = 0.0675942, Final residual = 4.83962e-09, No Iterations 38
ExecutionTime = 2489.95 s  ClockTime = 2492 s

forceCoeffs forces write:
    Cm    = 0.00148811
    Cd    = 0.0120566
    Cl    = 0.012316
    Cl(f) = 0.00764611
    Cl(r) = 0.00466989

Time = 497s

DILUPBiCGStab:  Solving for Ux, Initial residual = 0.00353034, Final residual = 4.07196e-09, No Iterations 3
DILUPBiCGStab:  Solving for Uy, Initial residual = 0.0139701, Final residual = 1.7342e-09, No Iterations 3
DILUPBiCGStab:  Solving for Uz, Initial residual = 0.0149794, Final residual = 1.44297e-09, No Iterations 3
GAMG:  Solving for p, Initial residual = 0.18638, Final residual = 0.00926012, No Iterations 2
time step continuity errors : sum local = 0.00277388, global = -3.7059e-05, cumulative = -0.0238938
DILUPBiCGStab:  Solving for omega, Initial residual = 0.159981, Final residual = 7.24098e-09, No Iterations 54
DILUPBiCGStab:  Solving for k, Initial residual = 0.113785, Final residual = 8.67801e-09, No Iterations 30
bounding k, min: -0.0593795 max: 134.265 average: 0.241322
ExecutionTime = 2495.22 s  ClockTime = 2498 s

forceCoeffs forces write:
    Cm    = 0.00214178
    Cd    = 0.0143312
    Cl    = 0.013201
    Cl(f) = 0.00874228
    Cl(r) = 0.00445872

Time = 498s

DILUPBiCGStab:  Solving for Ux, Initial residual = 0.00276925, Final residual = 9.38827e-09, No Iterations 3
DILUPBiCGStab:  Solving for Uy, Initial residual = 0.0135164, Final residual = 2.40313e-09, No Iterations 3
DILUPBiCGStab:  Solving for Uz, Initial residual = 0.0157793, Final residual = 2.77564e-09, No Iterations 3
GAMG:  Solving for p, Initial residual = 0.221128, Final residual = 0.00910298, No Iterations 2
time step continuity errors : sum local = 0.00310016, global = -4.2757e-06, cumulative = -0.023898
DILUPBiCGStab:  Solving for omega, Initial residual = 0.287692, Final residual = 9.80211e-09, No Iterations 44
DILUPBiCGStab:  Solving for k, Initial residual = 0.0674615, Final residual = 7.82217e-09, No Iterations 36
bounding k, min: -0.00062312 max: 134.187 average: 0.266334
ExecutionTime = 2500.08 s  ClockTime = 2502 s

forceCoeffs forces write:
    Cm    = 0.00235304
    Cd    = 0.0142843
    Cl    = 0.0094673
    Cl(f) = 0.0070867
    Cl(r) = 0.00238061

Time = 499s

DILUPBiCGStab:  Solving for Ux, Initial residual = 0.00352299, Final residual = 3.45864e-09, No Iterations 3
DILUPBiCGStab:  Solving for Uy, Initial residual = 0.0137026, Final residual = 1.42073e-09, No Iterations 3
DILUPBiCGStab:  Solving for Uz, Initial residual = 0.0149795, Final residual = 1.27492e-09, No Iterations 3
GAMG:  Solving for p, Initial residual = 0.177915, Final residual = 0.00912755, No Iterations 2
time step continuity errors : sum local = 0.00280503, global = -2.15732e-05, cumulative = -0.0239196
DILUPBiCGStab:  Solving for omega, Initial residual = 0.184103, Final residual = 7.76766e-09, No Iterations 51
DILUPBiCGStab:  Solving for k, Initial residual = 0.115243, Final residual = 9.56153e-09, No Iterations 30
bounding k, min: -0.0588336 max: 134.334 average: 0.243271
ExecutionTime = 2505.4 s  ClockTime = 2508 s

forceCoeffs forces write:
    Cm    = 0.00247594
    Cd    = 0.0140335
    Cl    = 0.0101886
    Cl(f) = 0.00757024
    Cl(r) = 0.00261836

Time = 500s

DILUPBiCGStab:  Solving for Ux, Initial residual = 0.00304763, Final residual = 1.92293e-09, No Iterations 3
DILUPBiCGStab:  Solving for Uy, Initial residual = 0.0146011, Final residual = 4.40628e-09, No Iterations 3
DILUPBiCGStab:  Solving for Uz, Initial residual = 0.017176, Final residual = 3.05537e-09, No Iterations 3
GAMG:  Solving for p, Initial residual = 0.213309, Final residual = 0.008537, No Iterations 2
time step continuity errors : sum local = 0.00291832, global = -2.2438e-05, cumulative = -0.023942
DILUPBiCGStab:  Solving for omega, Initial residual = 0.285424, Final residual = 7.57425e-09, No Iterations 45
DILUPBiCGStab:  Solving for k, Initial residual = 0.0704481, Final residual = 9.95694e-09, No Iterations 36
bounding k, min: -0.022813 max: 134.264 average: 0.268798
ExecutionTime = 2510.22 s  ClockTime = 2513 s

forceCoeffs forces write:
    Cm    = 0.00216741
    Cd    = 0.013589
    Cl    = 0.0140393
    Cl(f) = 0.00918707
    Cl(r) = 0.00485226

Time = 501s

DILUPBiCGStab:  Solving for Ux, Initial residual = 0.00346633, Final residual = 3.25141e-09, No Iterations 3
DILUPBiCGStab:  Solving for Uy, Initial residual = 0.0140904, Final residual = 1.51275e-09, No Iterations 3
DILUPBiCGStab:  Solving for Uz, Initial residual = 0.0154904, Final residual = 1.24476e-09, No Iterations 3
GAMG:  Solving for p, Initial residual = 0.192539, Final residual = 0.00982203, No Iterations 2
time step continuity errors : sum local = 0.00302934, global = -3.25473e-05, cumulative = -0.0239746
DILUPBiCGStab:  Solving for omega, Initial residual = 0.194823, Final residual = 7.29829e-09, No Iterations 49
DILUPBiCGStab:  Solving for k, Initial residual = 0.113932, Final residual = 9.17171e-09, No Iterations 33
bounding k, min: -0.0599354 max: 134.417 average: 0.240346
ExecutionTime = 2515.02 s  ClockTime = 2517 s

forceCoeffs forces write:
    Cm    = 0.00185123
    Cd    = 0.0125152
    Cl    = 0.0125739
    Cl(f) = 0.0081382
    Cl(r) = 0.00443573

Time = 502s

DILUPBiCGStab:  Solving for Ux, Initial residual = 0.00284555, Final residual = 8.77929e-10, No Iterations 3
DILUPBiCGStab:  Solving for Uy, Initial residual = 0.0139624, Final residual = 4.8739e-09, No Iterations 3
DILUPBiCGStab:  Solving for Uz, Initial residual = 0.0160818, Final residual = 2.58509e-10, No Iterations 4
GAMG:  Solving for p, Initial residual = 0.224398, Final residual = 0.00908814, No Iterations 2
time step continuity errors : sum local = 0.00302046, global = -1.11825e-05, cumulative = -0.0239858
DILUPBiCGStab:  Solving for omega, Initial residual = 0.282829, Final residual = 7.50067e-09, No Iterations 46
DILUPBiCGStab:  Solving for k, Initial residual = 0.0707014, Final residual = 1.31169e-09, No Iterations 38
bounding k, min: -0.04168 max: 134.341 average: 0.265776
ExecutionTime = 2519.94 s  ClockTime = 2522 s

forceCoeffs forces write:
    Cm    = 0.00209147
    Cd    = 0.0130109
    Cl    = 0.00875858
    Cl(f) = 0.00647076
    Cl(r) = 0.00228783

Time = 503s

DILUPBiCGStab:  Solving for Ux, Initial residual = 0.00354163, Final residual = 3.71203e-09, No Iterations 3
DILUPBiCGStab:  Solving for Uy, Initial residual = 0.0142331, Final residual = 1.82835e-09, No Iterations 3
DILUPBiCGStab:  Solving for Uz, Initial residual = 0.0155295, Final residual = 1.23358e-09, No Iterations 3
GAMG:  Solving for p, Initial residual = 0.187501, Final residual = 0.00933404, No Iterations 2
time step continuity errors : sum local = 0.00283431, global = -3.68024e-05, cumulative = -0.0240226
DILUPBiCGStab:  Solving for omega, Initial residual = 0.206294, Final residual = 1.52202e-09, No Iterations 54
DILUPBiCGStab:  Solving for k, Initial residual = 0.117095, Final residual = 7.62857e-09, No Iterations 29
bounding k, min: -0.0592769 max: 134.482 average: 0.238716
ExecutionTime = 2525.09 s  ClockTime = 2527 s

streamlines streamlines write:
    Seeded 20 particles
    Sampled 9080 locations
forceCoeffs forces write:
    Cm    = 0.00304861
    Cd    = 0.0168458
    Cl    = 0.011363
    Cl(f) = 0.00873012
    Cl(r) = 0.00263291

End

