/*---------------------------------------------------------------------------*\
  =========                 |
  \\      /  F ield         | OpenFOAM: The Open Source CFD Toolbox
   \\    /   O peration     | Website:  https://openfoam.org
    \\  /    A nd           | Version:  12
     \\/     M anipulation  |
\*---------------------------------------------------------------------------*/
Build  : 12-8b1612fe08a0
Exec   : foamRun
Date   : Sep 01 2024
Time   : 08:54:52
Host   : "DESKTOP-HK6CJNO"
PID    : 4285
I/O    : uncollated
Case   : /home/weizhe/OpenFOAM/weizhe-12/run/ahmed/results/1e-05_10
nProcs : 1
sigFpe : Enabling floating point exception trapping (FOAM_SIGFPE).
fileModificationChecking : Monitoring run-time modified files using timeStampMaster (fileModificationSkew 10)
allowSystemOperations : Allowing user-supplied system call operations

// * * * * * * * * * * * * * * * * * * * * * * * * * * * * * * * * * * * * * //
Create time

Create mesh for time = 3

Selecting solver incompressibleFluid
Selecting viscosity model constant
Selecting turbulence model type RAS
Selecting RAS turbulence model SpalartAllmaras
RAS
{
    model           SpalartAllmaras;
    turbulence      on;
    printCoeffs     on;
    sigmaNut        0.66666;
    kappa           0.41;
    Cb1             0.1355;
    Cb2             0.622;
    Cw2             0.3;
    Cw3             2;
    Cv1             7.1;
    Cs              0.3;
}

No MRF models present


SIMPLE: No convergence criteria found


SIMPLE: Operating solver in steady-state mode with 1 outer corrector
SIMPLE: Operating solver in SIMPLE mode



Starting time loop

Reading surface description:
    yNormal

streamlines streamlines:
    automatic track length specified through number of sub cycles : 5

forcesBase forces:
    Not including porosity effects
forces forces:
    Not including porosity effects
forceCoeffs forces:
    Not including porosity effects
streamlines streamlines write:
    Seeded 20 particles
    Sampled 6040 locations
forceCoeffs forces write:
    Cm    = 0.000969739
    Cd    = 0.00555104
    Cl    = 3.825e-05
    Cl(f) = 0.000988864
    Cl(r) = -0.000950614

Time = 4s

smoothSolver:  Solving for Ux, Initial residual = 1, Final residual = 0.0473349, No Iterations 3
smoothSolver:  Solving for Uy, Initial residual = 1, Final residual = 0.0291277, No Iterations 3
smoothSolver:  Solving for Uz, Initial residual = 1, Final residual = 0.0396962, No Iterations 3
GAMG:  Solving for p, Initial residual = 1, Final residual = 0.0472572, No Iterations 5
time step continuity errors : sum local = 0.00428045, global = -0.000180608, cumulative = -0.000180608
Selecting patchDistMethod meshWave
smoothSolver:  Solving for nuTilda, Initial residual = 1, Final residual = 0.0323839, No Iterations 1
ExecutionTime = 7.88439 s  ClockTime = 9 s

forceCoeffs forces write:
    Cm    = 0.492142
    Cd    = 2.19985
    Cl    = 0.480429
    Cl(f) = 0.732356
    Cl(r) = -0.251927

Time = 5s

smoothSolver:  Solving for Ux, Initial residual = 0.417227, Final residual = 0.0414126, No Iterations 2
smoothSolver:  Solving for Uy, Initial residual = 0.499646, Final residual = 0.0149076, No Iterations 3
smoothSolver:  Solving for Uz, Initial residual = 0.4881, Final residual = 0.0141671, No Iterations 3
GAMG:  Solving for p, Initial residual = 0.200059, Final residual = 0.00922901, No Iterations 3
time step continuity errors : sum local = 0.00813386, global = -7.12507e-05, cumulative = -0.000251859
smoothSolver:  Solving for nuTilda, Initial residual = 0.210358, Final residual = 0.0123323, No Iterations 1
ExecutionTime = 9.26489 s  ClockTime = 10 s

forceCoeffs forces write:
    Cm    = 0.514696
    Cd    = 2.25467
    Cl    = 0.531798
    Cl(f) = 0.780595
    Cl(r) = -0.248796

Time = 6s

smoothSolver:  Solving for Ux, Initial residual = 0.190529, Final residual = 0.0189253, No Iterations 2
smoothSolver:  Solving for Uy, Initial residual = 0.270977, Final residual = 0.00813425, No Iterations 3
smoothSolver:  Solving for Uz, Initial residual = 0.262602, Final residual = 0.00767508, No Iterations 3
GAMG:  Solving for p, Initial residual = 0.287641, Final residual = 0.0233028, No Iterations 3
time step continuity errors : sum local = 0.0268337, global = -0.000534916, cumulative = -0.000786775
smoothSolver:  Solving for nuTilda, Initial residual = 0.0849487, Final residual = 0.00180697, No Iterations 2
ExecutionTime = 10.5747 s  ClockTime = 11 s

forceCoeffs forces write:
    Cm    = 0.262968
    Cd    = 1.11768
    Cl    = 0.282791
    Cl(f) = 0.404363
    Cl(r) = -0.121572

Time = 7s

smoothSolver:  Solving for Ux, Initial residual = 0.0741594, Final residual = 0.00735987, No Iterations 2
smoothSolver:  Solving for Uy, Initial residual = 0.117005, Final residual = 0.00351779, No Iterations 3
smoothSolver:  Solving for Uz, Initial residual = 0.114197, Final residual = 0.00332617, No Iterations 3
GAMG:  Solving for p, Initial residual = 0.327512, Final residual = 0.0309916, No Iterations 3
time step continuity errors : sum local = 0.0315113, global = 0.000113215, cumulative = -0.00067356
smoothSolver:  Solving for nuTilda, Initial residual = 0.0430923, Final residual = 0.00163182, No Iterations 2
ExecutionTime = 11.8558 s  ClockTime = 13 s

forceCoeffs forces write:
    Cm    = -0.0301603
    Cd    = -0.145856
    Cl    = -0.0239578
    Cl(f) = -0.0421392
    Cl(r) = 0.0181814

Time = 8s

smoothSolver:  Solving for Ux, Initial residual = 0.0146601, Final residual = 0.00122477, No Iterations 2
smoothSolver:  Solving for Uy, Initial residual = 0.0269159, Final residual = 0.00245637, No Iterations 2
smoothSolver:  Solving for Uz, Initial residual = 0.0274054, Final residual = 0.00238746, No Iterations 2
GAMG:  Solving for p, Initial residual = 0.429151, Final residual = 0.0300808, No Iterations 3
time step continuity errors : sum local = 0.0194485, global = 0.000351813, cumulative = -0.000321747
smoothSolver:  Solving for nuTilda, Initial residual = 0.0269653, Final residual = 0.00149039, No Iterations 2
ExecutionTime = 13.3855 s  ClockTime = 14 s

forceCoeffs forces write:
    Cm    = -0.196596
    Cd    = -0.824584
    Cl    = -0.205356
    Cl(f) = -0.299274
    Cl(r) = 0.0939178

Time = 9s

smoothSolver:  Solving for Ux, Initial residual = 0.0609287, Final residual = 0.00601115, No Iterations 2
smoothSolver:  Solving for Uy, Initial residual = 0.134883, Final residual = 0.00403008, No Iterations 3
smoothSolver:  Solving for Uz, Initial residual = 0.117271, Final residual = 0.00337976, No Iterations 3
GAMG:  Solving for p, Initial residual = 0.63152, Final residual = 0.037076, No Iterations 2
time step continuity errors : sum local = 0.0144346, global = 0.000642178, cumulative = 0.000320432
smoothSolver:  Solving for nuTilda, Initial residual = 0.0198885, Final residual = 0.00135592, No Iterations 2
ExecutionTime = 15.068 s  ClockTime = 16 s

forceCoeffs forces write:
    Cm    = -0.195853
    Cd    = -0.79343
    Cl    = -0.207985
    Cl(f) = -0.299845
    Cl(r) = 0.0918604

Time = 10s

smoothSolver:  Solving for Ux, Initial residual = 0.0774648, Final residual = 0.00766987, No Iterations 2
smoothSolver:  Solving for Uy, Initial residual = 0.182487, Final residual = 0.00547925, No Iterations 3
smoothSolver:  Solving for Uz, Initial residual = 0.148882, Final residual = 0.00431671, No Iterations 3
GAMG:  Solving for p, Initial residual = 0.687666, Final residual = 0.0376544, No Iterations 3
time step continuity errors : sum local = 0.01385, global = 0.000736693, cumulative = 0.00105712
smoothSolver:  Solving for nuTilda, Initial residual = 0.0161242, Final residual = 0.00122691, No Iterations 2
ExecutionTime = 16.5714 s  ClockTime = 17 s

forceCoeffs forces write:
    Cm    = -0.0904482
    Cd    = -0.333126
    Cl    = -0.0930252
    Cl(f) = -0.136961
    Cl(r) = 0.0439356

Time = 11s

smoothSolver:  Solving for Ux, Initial residual = 0.0540217, Final residual = 0.00524933, No Iterations 2
smoothSolver:  Solving for Uy, Initial residual = 0.110996, Final residual = 0.0032557, No Iterations 3
smoothSolver:  Solving for Uz, Initial residual = 0.0961879, Final residual = 0.00942254, No Iterations 2
GAMG:  Solving for p, Initial residual = 0.747414, Final residual = 0.0499452, No Iterations 3
time step continuity errors : sum local = 0.015453, global = 0.000397971, cumulative = 0.0014551
smoothSolver:  Solving for nuTilda, Initial residual = 0.0137376, Final residual = 0.00111017, No Iterations 2
ExecutionTime = 18.2243 s  ClockTime = 19 s

forceCoeffs forces write:
    Cm    = 0.0314943
    Cd    = 0.159258
    Cl    = 0.041772
    Cl(f) = 0.0523803
    Cl(r) = -0.0106083

Time = 12s

smoothSolver:  Solving for Ux, Initial residual = 0.0196588, Final residual = 0.0016166, No Iterations 2
smoothSolver:  Solving for Uy, Initial residual = 0.0484753, Final residual = 0.00466229, No Iterations 2
smoothSolver:  Solving for Uz, Initial residual = 0.0443144, Final residual = 0.00392344, No Iterations 2
GAMG:  Solving for p, Initial residual = 0.594026, Final residual = 0.0334607, No Iterations 3
time step continuity errors : sum local = 0.0107137, global = -0.000617664, cumulative = 0.000837432
smoothSolver:  Solving for nuTilda, Initial residual = 0.0120262, Final residual = 0.00100922, No Iterations 2
ExecutionTime = 19.5944 s  ClockTime = 20 s

forceCoeffs forces write:
    Cm    = 0.101043
    Cd    = 0.416242
    Cl    = 0.11864
    Cl(f) = 0.160363
    Cl(r) = -0.041723

Time = 13s

smoothSolver:  Solving for Ux, Initial residual = 0.049356, Final residual = 0.00491376, No Iterations 2
smoothSolver:  Solving for Uy, Initial residual = 0.0963795, Final residual = 0.0028696, No Iterations 3
smoothSolver:  Solving for Uz, Initial residual = 0.0833377, Final residual = 0.00237722, No Iterations 3
GAMG:  Solving for p, Initial residual = 0.480383, Final residual = 0.0343734, No Iterations 2
time step continuity errors : sum local = 0.0119258, global = -0.000420385, cumulative = 0.000417047
smoothSolver:  Solving for nuTilda, Initial residual = 0.0107474, Final residual = 0.000923598, No Iterations 2
ExecutionTime = 20.8434 s  ClockTime = 22 s

forceCoeffs forces write:
    Cm    = 0.100536
    Cd    = 0.391989
    Cl    = 0.116919
    Cl(f) = 0.158996
    Cl(r) = -0.0420766

Time = 14s

smoothSolver:  Solving for Ux, Initial residual = 0.046381, Final residual = 0.00462377, No Iterations 2
smoothSolver:  Solving for Uy, Initial residual = 0.0798573, Final residual = 0.00239693, No Iterations 3
smoothSolver:  Solving for Uz, Initial residual = 0.0718894, Final residual = 0.00208266, No Iterations 3
GAMG:  Solving for p, Initial residual = 0.403804, Final residual = 0.0210206, No Iterations 3
time step continuity errors : sum local = 0.00746204, global = -0.0012858, cumulative = -0.00086875
smoothSolver:  Solving for nuTilda, Initial residual = 0.0097557, Final residual = 0.000851886, No Iterations 2
ExecutionTime = 22.1675 s  ClockTime = 23 s

forceCoeffs forces write:
    Cm    = 0.0499272
    Cd    = 0.180399
    Cl    = 0.0562072
    Cl(f) = 0.0780309
    Cl(r) = -0.0218236

Time = 15s

smoothSolver:  Solving for Ux, Initial residual = 0.0254721, Final residual = 0.00241951, No Iterations 2
smoothSolver:  Solving for Uy, Initial residual = 0.0381889, Final residual = 0.00111111, No Iterations 3
smoothSolver:  Solving for Uz, Initial residual = 0.0400889, Final residual = 0.00394255, No Iterations 2
GAMG:  Solving for p, Initial residual = 0.328159, Final residual = 0.0230255, No Iterations 3
time step continuity errors : sum local = 0.00814641, global = -0.000957171, cumulative = -0.00182592
smoothSolver:  Solving for nuTilda, Initial residual = 0.00895984, Final residual = 0.000793398, No Iterations 2
ExecutionTime = 23.4388 s  ClockTime = 24 s

forceCoeffs forces write:
    Cm    = -0.00802068
    Cd    = -0.038187
    Cl    = -0.0113757
    Cl(f) = -0.0137085
    Cl(r) = 0.00233286

Time = 16s

smoothSolver:  Solving for Ux, Initial residual = 0.0122237, Final residual = 0.00106797, No Iterations 2
smoothSolver:  Solving for Uy, Initial residual = 0.0239309, Final residual = 0.00229537, No Iterations 2
smoothSolver:  Solving for Uz, Initial residual = 0.0231228, Final residual = 0.00210892, No Iterations 2
GAMG:  Solving for p, Initial residual = 0.319194, Final residual = 0.0170732, No Iterations 3
time step continuity errors : sum local = 0.00580156, global = 0.00030438, cumulative = -0.00152154
smoothSolver:  Solving for nuTilda, Initial residual = 0.00831999, Final residual = 0.000746433, No Iterations 2
ExecutionTime = 24.7156 s  ClockTime = 25 s

forceCoeffs forces write:
    Cm    = -0.0405697
    Cd    = -0.14708
    Cl    = -0.0477386
    Cl(f) = -0.064439
    Cl(r) = 0.0167004

Time = 17s

smoothSolver:  Solving for Ux, Initial residual = 0.0195188, Final residual = 0.00194098, No Iterations 2
smoothSolver:  Solving for Uy, Initial residual = 0.0427555, Final residual = 0.00124501, No Iterations 3
smoothSolver:  Solving for Uz, Initial residual = 0.0353002, Final residual = 0.00347929, No Iterations 2
GAMG:  Solving for p, Initial residual = 0.335376, Final residual = 0.0276533, No Iterations 2
time step continuity errors : sum local = 0.00857008, global = 0.000192142, cumulative = -0.0013294
smoothSolver:  Solving for nuTilda, Initial residual = 0.00781967, Final residual = 0.000707143, No Iterations 2
ExecutionTime = 26.0729 s  ClockTime = 27 s

forceCoeffs forces write:
    Cm    = -0.0404574
    Cd    = -0.132851
    Cl    = -0.0457977
    Cl(f) = -0.0633562
    Cl(r) = 0.0175585

Time = 18s

smoothSolver:  Solving for Ux, Initial residual = 0.019438, Final residual = 0.00055512, No Iterations 3
smoothSolver:  Solving for Uy, Initial residual = 0.0425935, Final residual = 0.00125293, No Iterations 3
smoothSolver:  Solving for Uz, Initial residual = 0.0349349, Final residual = 0.00347361, No Iterations 2
GAMG:  Solving for p, Initial residual = 0.320095, Final residual = 0.0153562, No Iterations 3
time step continuity errors : sum local = 0.00432353, global = 0.000791265, cumulative = -0.000538134
smoothSolver:  Solving for nuTilda, Initial residual = 0.0073795, Final residual = 0.000672296, No Iterations 2
ExecutionTime = 27.4293 s  ClockTime = 28 s

forceCoeffs forces write:
    Cm    = -0.0150855
    Cd    = -0.0341588
    Cl    = -0.0116199
    Cl(f) = -0.0208954
    Cl(r) = 0.00927554

Time = 19s

smoothSolver:  Solving for Ux, Initial residual = 0.0125218, Final residual = 0.00116651, No Iterations 2
smoothSolver:  Solving for Uy, Initial residual = 0.0222186, Final residual = 0.0021517, No Iterations 2
smoothSolver:  Solving for Uz, Initial residual = 0.0221404, Final residual = 0.00206862, No Iterations 2
GAMG:  Solving for p, Initial residual = 0.29631, Final residual = 0.0183723, No Iterations 3
time step continuity errors : sum local = 0.00431166, global = 0.000810391, cumulative = 0.000272256
smoothSolver:  Solving for nuTilda, Initial residual = 0.00697949, Final residual = 0.000640965, No Iterations 2
ExecutionTime = 28.8113 s  ClockTime = 30 s

forceCoeffs forces write:
    Cm    = 0.0134005
    Cd    = 0.063944
    Cl    = 0.0253978
    Cl(f) = 0.0260994
    Cl(r) = -0.000701649

Time = 20s

smoothSolver:  Solving for Ux, Initial residual = 0.00771497, Final residual = 0.000654545, No Iterations 2
smoothSolver:  Solving for Uy, Initial residual = 0.0227433, Final residual = 0.00226061, No Iterations 2
smoothSolver:  Solving for Uz, Initial residual = 0.0202712, Final residual = 0.00188608, No Iterations 2
GAMG:  Solving for p, Initial residual = 0.315927, Final residual = 0.0141761, No Iterations 3
time step continuity errors : sum local = 0.00293141, global = 2.40438e-05, cumulative = 0.0002963
smoothSolver:  Solving for nuTilda, Initial residual = 0.00662264, Final residual = 0.000613225, No Iterations 2
ExecutionTime = 30.1141 s  ClockTime = 31 s

forceCoeffs forces write:
    Cm    = 0.0291107
    Cd    = 0.109577
    Cl    = 0.0452248
    Cl(f) = 0.0517231
    Cl(r) = -0.00649827

Time = 21s

smoothSolver:  Solving for Ux, Initial residual = 0.0105463, Final residual = 0.0010129, No Iterations 2
smoothSolver:  Solving for Uy, Initial residual = 0.0295966, Final residual = 0.000872853, No Iterations 3
smoothSolver:  Solving for Uz, Initial residual = 0.0253171, Final residual = 0.00250718, No Iterations 2
GAMG:  Solving for p, Initial residual = 0.297816, Final residual = 0.0261062, No Iterations 2
time step continuity errors : sum local = 0.00545053, global = -8.59174e-05, cumulative = 0.000210383
smoothSolver:  Solving for nuTilda, Initial residual = 0.00630959, Final residual = 0.000588523, No Iterations 2
ExecutionTime = 31.4564 s  ClockTime = 32 s

forceCoeffs forces write:
    Cm    = 0.0290665
    Cd    = 0.100239
    Cl    = 0.0447726
    Cl(f) = 0.0514528
    Cl(r) = -0.0066802

Time = 22s

smoothSolver:  Solving for Ux, Initial residual = 0.0103412, Final residual = 0.00101883, No Iterations 2
smoothSolver:  Solving for Uy, Initial residual = 0.0251291, Final residual = 0.000748425, No Iterations 3
smoothSolver:  Solving for Uz, Initial residual = 0.0230592, Final residual = 0.000653478, No Iterations 3
GAMG:  Solving for p, Initial residual = 0.250086, Final residual = 0.0117578, No Iterations 3
time step continuity errors : sum local = 0.00252304, global = -0.000412861, cumulative = -0.000202479
smoothSolver:  Solving for nuTilda, Initial residual = 0.00603935, Final residual = 0.000566318, No Iterations 2
ExecutionTime = 32.8514 s  ClockTime = 34 s

forceCoeffs forces write:
    Cm    = 0.016402
    Cd    = 0.0537328
    Cl    = 0.0264015
    Cl(f) = 0.0296027
    Cl(r) = -0.00320123

Time = 23s

smoothSolver:  Solving for Ux, Initial residual = 0.00704942, Final residual = 0.000667114, No Iterations 2
smoothSolver:  Solving for Uy, Initial residual = 0.0148131, Final residual = 0.00146901, No Iterations 2
smoothSolver:  Solving for Uz, Initial residual = 0.0156687, Final residual = 0.00152177, No Iterations 2
GAMG:  Solving for p, Initial residual = 0.179125, Final residual = 0.00977809, No Iterations 3
time step continuity errors : sum local = 0.00228741, global = -0.000445088, cumulative = -0.000647567
smoothSolver:  Solving for nuTilda, Initial residual = 0.00580039, Final residual = 0.000546869, No Iterations 2
ExecutionTime = 34.1592 s  ClockTime = 35 s

forceCoeffs forces write:
    Cm    = 0.00197858
    Cd    = 0.00909901
    Cl    = 0.00623799
    Cl(f) = 0.00509758
    Cl(r) = 0.00114041

Time = 24s

smoothSolver:  Solving for Ux, Initial residual = 0.00576935, Final residual = 0.000528589, No Iterations 2
smoothSolver:  Solving for Uy, Initial residual = 0.0134981, Final residual = 0.00130067, No Iterations 2
smoothSolver:  Solving for Uz, Initial residual = 0.0123058, Final residual = 0.0011634, No Iterations 2
GAMG:  Solving for p, Initial residual = 0.152879, Final residual = 0.00683871, No Iterations 3
time step continuity errors : sum local = 0.00170118, global = -0.000229076, cumulative = -0.000876643
smoothSolver:  Solving for nuTilda, Initial residual = 0.00558694, Final residual = 0.000529539, No Iterations 2
ExecutionTime = 35.6488 s  ClockTime = 36 s

forceCoeffs forces write:
    Cm    = -0.00615514
    Cd    = -0.0109703
    Cl    = -0.00453564
    Cl(f) = -0.00842296
    Cl(r) = 0.00388732

Time = 25s

smoothSolver:  Solving for Ux, Initial residual = 0.00662708, Final residual = 0.000643423, No Iterations 2
smoothSolver:  Solving for Uy, Initial residual = 0.0149288, Final residual = 0.00146052, No Iterations 2
smoothSolver:  Solving for Uz, Initial residual = 0.0126836, Final residual = 0.00122237, No Iterations 2
GAMG:  Solving for p, Initial residual = 0.148421, Final residual = 0.0135666, No Iterations 2
time step continuity errors : sum local = 0.00336859, global = 5.75857e-05, cumulative = -0.000819057
smoothSolver:  Solving for nuTilda, Initial residual = 0.0053914, Final residual = 0.000513671, No Iterations 2
ExecutionTime = 36.9796 s  ClockTime = 38 s

forceCoeffs forces write:
    Cm    = -0.00659766
    Cd    = -0.00664699
    Cl    = -0.00461028
    Cl(f) = -0.0089028
    Cl(r) = 0.00429253

Time = 26s

smoothSolver:  Solving for Ux, Initial residual = 0.0061722, Final residual = 0.000604191, No Iterations 2
smoothSolver:  Solving for Uy, Initial residual = 0.0131532, Final residual = 0.00128574, No Iterations 2
smoothSolver:  Solving for Uz, Initial residual = 0.0110387, Final residual = 0.0010604, No Iterations 2
GAMG:  Solving for p, Initial residual = 0.136626, Final residual = 0.00643616, No Iterations 3
time step continuity errors : sum local = 0.00152834, global = 0.000201769, cumulative = -0.000617288
smoothSolver:  Solving for nuTilda, Initial residual = 0.0052164, Final residual = 0.000499259, No Iterations 2
ExecutionTime = 38.4154 s  ClockTime = 39 s

forceCoeffs forces write:
    Cm    = -0.000704291
    Cd    = 0.0137485
    Cl    = 0.0056464
    Cl(f) = 0.00211891
    Cl(r) = 0.00352749

Time = 27s

smoothSolver:  Solving for Ux, Initial residual = 0.0046873, Final residual = 0.000434048, No Iterations 2
smoothSolver:  Solving for Uy, Initial residual = 0.00968094, Final residual = 0.000920389, No Iterations 2
smoothSolver:  Solving for Uz, Initial residual = 0.00916976, Final residual = 0.000848355, No Iterations 2
GAMG:  Solving for p, Initial residual = 0.120468, Final residual = 0.00604507, No Iterations 3
time step continuity errors : sum local = 0.00126852, global = 0.00023348, cumulative = -0.000383808
smoothSolver:  Solving for nuTilda, Initial residual = 0.00505562, Final residual = 0.000486011, No Iterations 2
ExecutionTime = 39.8439 s  ClockTime = 41 s

forceCoeffs forces write:
    Cm    = 0.00648009
    Cd    = 0.0331283
    Cl    = 0.0176846
    Cl(f) = 0.0153224
    Cl(r) = 0.00236219

Time = 28s

smoothSolver:  Solving for Ux, Initial residual = 0.0038842, Final residual = 0.000347555, No Iterations 2
smoothSolver:  Solving for Uy, Initial residual = 0.0115808, Final residual = 0.00114558, No Iterations 2
smoothSolver:  Solving for Uz, Initial residual = 0.010509, Final residual = 0.000997059, No Iterations 2
GAMG:  Solving for p, Initial residual = 0.125121, Final residual = 0.00530497, No Iterations 3
time step continuity errors : sum local = 0.000994193, global = 0.000228546, cumulative = -0.000155262
smoothSolver:  Solving for nuTilda, Initial residual = 0.00490613, Final residual = 0.000473692, No Iterations 2
ExecutionTime = 41.1665 s  ClockTime = 42 s

forceCoeffs forces write:
    Cm    = 0.0107417
    Cd    = 0.0413512
    Cl    = 0.0248054
    Cl(f) = 0.0231444
    Cl(r) = 0.00166104

Time = 29s

smoothSolver:  Solving for Ux, Initial residual = 0.00404168, Final residual = 0.000377232, No Iterations 2
smoothSolver:  Solving for Uy, Initial residual = 0.0126432, Final residual = 0.000361525, No Iterations 3
smoothSolver:  Solving for Uz, Initial residual = 0.0115107, Final residual = 0.00112611, No Iterations 2
GAMG:  Solving for p, Initial residual = 0.123872, Final residual = 0.0108661, No Iterations 2
time step continuity errors : sum local = 0.001966, global = -2.33656e-05, cumulative = -0.000178628
smoothSolver:  Solving for nuTilda, Initial residual = 0.00476671, Final residual = 0.00046211, No Iterations 2
ExecutionTime = 43.0663 s  ClockTime = 44 s

forceCoeffs forces write:
    Cm    = 0.0110857
    Cd    = 0.0387237
    Cl    = 0.0255082
    Cl(f) = 0.0238398
    Cl(r) = 0.00166843

Time = 30s

smoothSolver:  Solving for Ux, Initial residual = 0.003792, Final residual = 0.000359519, No Iterations 2
smoothSolver:  Solving for Uy, Initial residual = 0.0109751, Final residual = 0.000313625, No Iterations 3
smoothSolver:  Solving for Uz, Initial residual = 0.0106247, Final residual = 0.00104581, No Iterations 2
GAMG:  Solving for p, Initial residual = 0.106336, Final residual = 0.00467706, No Iterations 3
time step continuity errors : sum local = 0.000867324, global = -5.55588e-05, cumulative = -0.000234186
smoothSolver:  Solving for nuTilda, Initial residual = 0.00463661, Final residual = 0.000451174, No Iterations 2
ExecutionTime = 44.5441 s  ClockTime = 45 s

forceCoeffs forces write:
    Cm    = 0.00809267
    Cd    = 0.029061
    Cl    = 0.0201937
    Cl(f) = 0.0181895
    Cl(r) = 0.00200421

Time = 31s

smoothSolver:  Solving for Ux, Initial residual = 0.00322372, Final residual = 0.000306324, No Iterations 2
smoothSolver:  Solving for Uy, Initial residual = 0.00823268, Final residual = 0.000809585, No Iterations 2
smoothSolver:  Solving for Uz, Initial residual = 0.00858142, Final residual = 0.000838246, No Iterations 2
GAMG:  Solving for p, Initial residual = 0.0761353, Final residual = 0.00352, No Iterations 3
time step continuity errors : sum local = 0.000707109, global = -0.000101401, cumulative = -0.000335588
smoothSolver:  Solving for nuTilda, Initial residual = 0.00451796, Final residual = 0.000441065, No Iterations 2
ExecutionTime = 45.9368 s  ClockTime = 47 s

forceCoeffs forces write:
    Cm    = 0.00432723
    Cd    = 0.0201688
    Cl    = 0.0136721
    Cl(f) = 0.0111633
    Cl(r) = 0.0025088

Time = 32s

smoothSolver:  Solving for Ux, Initial residual = 0.00321491, Final residual = 0.000310255, No Iterations 2
smoothSolver:  Solving for Uy, Initial residual = 0.00791256, Final residual = 0.000767733, No Iterations 2
smoothSolver:  Solving for Uz, Initial residual = 0.00759766, Final residual = 0.000733545, No Iterations 2
GAMG:  Solving for p, Initial residual = 0.0654945, Final residual = 0.00284213, No Iterations 3
time step continuity errors : sum local = 0.000609923, global = -0.000158034, cumulative = -0.000493621
smoothSolver:  Solving for nuTilda, Initial residual = 0.00440724, Final residual = 0.000431617, No Iterations 2
ExecutionTime = 47.3533 s  ClockTime = 48 s

forceCoeffs forces write:
    Cm    = 0.00196361
    Cd    = 0.0163937
    Cl    = 0.00984343
    Cl(f) = 0.00688532
    Cl(r) = 0.00295811

Time = 33s

smoothSolver:  Solving for Ux, Initial residual = 0.00333774, Final residual = 0.000326276, No Iterations 2
smoothSolver:  Solving for Uy, Initial residual = 0.00782725, Final residual = 0.000756312, No Iterations 2
smoothSolver:  Solving for Uz, Initial residual = 0.00719795, Final residual = 0.000695935, No Iterations 2
GAMG:  Solving for p, Initial residual = 0.0635684, Final residual = 0.00549511, No Iterations 2
time step continuity errors : sum local = 0.00120164, global = 6.07833e-06, cumulative = -0.000487543
smoothSolver:  Solving for nuTilda, Initial residual = 0.00430201, Final residual = 0.000422641, No Iterations 2
ExecutionTime = 48.7006 s  ClockTime = 49 s

forceCoeffs forces write:
    Cm    = 0.00155974
    Cd    = 0.0173268
    Cl    = 0.00942567
    Cl(f) = 0.00627257
    Cl(r) = 0.00315309

Time = 34s

smoothSolver:  Solving for Ux, Initial residual = 0.00319558, Final residual = 0.000312375, No Iterations 2
smoothSolver:  Solving for Uy, Initial residual = 0.00730575, Final residual = 0.000703369, No Iterations 2
smoothSolver:  Solving for Uz, Initial residual = 0.00670452, Final residual = 0.000645883, No Iterations 2
GAMG:  Solving for p, Initial residual = 0.0593117, Final residual = 0.00239998, No Iterations 3
time step continuity errors : sum local = 0.000513751, global = -4.37208e-06, cumulative = -0.000491915
smoothSolver:  Solving for nuTilda, Initial residual = 0.00420447, Final residual = 0.000414231, No Iterations 2
ExecutionTime = 50.0679 s  ClockTime = 51 s

forceCoeffs forces write:
    Cm    = 0.00272241
    Cd    = 0.0211302
    Cl    = 0.0123493
    Cl(f) = 0.00889703
    Cl(r) = 0.00345222

Time = 35s

smoothSolver:  Solving for Ux, Initial residual = 0.00287858, Final residual = 0.000278218, No Iterations 2
smoothSolver:  Solving for Uy, Initial residual = 0.00692975, Final residual = 0.000670373, No Iterations 2
smoothSolver:  Solving for Uz, Initial residual = 0.0065193, Final residual = 0.000625366, No Iterations 2
GAMG:  Solving for p, Initial residual = 0.0506344, Final residual = 0.0022916, No Iterations 3
time step continuity errors : sum local = 0.000459754, global = 6.83264e-05, cumulative = -0.000423589
smoothSolver:  Solving for nuTilda, Initial residual = 0.00411269, Final residual = 0.000406256, No Iterations 2
ExecutionTime = 51.4946 s  ClockTime = 52 s

forceCoeffs forces write:
    Cm    = 0.0044537
    Cd    = 0.0245682
    Cl    = 0.0162649
    Cl(f) = 0.0125861
    Cl(r) = 0.00367876

Time = 36s

smoothSolver:  Solving for Ux, Initial residual = 0.002699, Final residual = 0.000259182, No Iterations 2
smoothSolver:  Solving for Uy, Initial residual = 0.00773001, Final residual = 0.00076353, No Iterations 2
smoothSolver:  Solving for Uz, Initial residual = 0.00721615, Final residual = 0.000700924, No Iterations 2
GAMG:  Solving for p, Initial residual = 0.0478142, Final residual = 0.00436371, No Iterations 2
time step continuity errors : sum local = 0.000819294, global = -0.000104923, cumulative = -0.000528511
smoothSolver:  Solving for nuTilda, Initial residual = 0.00402607, Final residual = 0.000398613, No Iterations 2
ExecutionTime = 52.7621 s  ClockTime = 54 s

forceCoeffs forces write:
    Cm    = 0.00541643
    Cd    = 0.0255559
    Cl    = 0.018476
    Cl(f) = 0.0146544
    Cl(r) = 0.00382157

Time = 37s

smoothSolver:  Solving for Ux, Initial residual = 0.00262113, Final residual = 0.00025055, No Iterations 2
smoothSolver:  Solving for Uy, Initial residual = 0.00785981, Final residual = 0.00077918, No Iterations 2
smoothSolver:  Solving for Uz, Initial residual = 0.00748837, Final residual = 0.000730448, No Iterations 2
GAMG:  Solving for p, Initial residual = 0.0478842, Final residual = 0.00391739, No Iterations 2
time step continuity errors : sum local = 0.000726322, global = -3.90777e-05, cumulative = -0.000567589
smoothSolver:  Solving for nuTilda, Initial residual = 0.00394385, Final residual = 0.000391258, No Iterations 2
ExecutionTime = 54.0775 s  ClockTime = 55 s

forceCoeffs forces write:
    Cm    = 0.00574871
    Cd    = 0.0249423
    Cl    = 0.0192569
    Cl(f) = 0.0153771
    Cl(r) = 0.00387972

Time = 38s

smoothSolver:  Solving for Ux, Initial residual = 0.00252363, Final residual = 0.00024292, No Iterations 2
smoothSolver:  Solving for Uy, Initial residual = 0.00742971, Final residual = 0.000734171, No Iterations 2
smoothSolver:  Solving for Uz, Initial residual = 0.00730103, Final residual = 0.000711867, No Iterations 2
GAMG:  Solving for p, Initial residual = 0.0430964, Final residual = 0.0042611, No Iterations 2
time step continuity errors : sum local = 0.000792189, global = -9.70812e-07, cumulative = -0.00056856
smoothSolver:  Solving for nuTilda, Initial residual = 0.00386599, Final residual = 0.000384234, No Iterations 2
ExecutionTime = 55.2923 s  ClockTime = 56 s

forceCoeffs forces write:
    Cm    = 0.00553548
    Cd    = 0.0234635
    Cl    = 0.0188037
    Cl(f) = 0.0149373
    Cl(r) = 0.00386637

Time = 39s

smoothSolver:  Solving for Ux, Initial residual = 0.00245389, Final residual = 0.000239843, No Iterations 2
smoothSolver:  Solving for Uy, Initial residual = 0.00680195, Final residual = 0.000666298, No Iterations 2
smoothSolver:  Solving for Uz, Initial residual = 0.0068891, Final residual = 0.000669999, No Iterations 2
GAMG:  Solving for p, Initial residual = 0.0358833, Final residual = 0.00131523, No Iterations 3
time step continuity errors : sum local = 0.000247635, global = 9.48008e-06, cumulative = -0.00055908
smoothSolver:  Solving for nuTilda, Initial residual = 0.00379252, Final residual = 0.00037753, No Iterations 2
ExecutionTime = 56.7561 s  ClockTime = 58 s

forceCoeffs forces write:
    Cm    = 0.00459022
    Cd    = 0.0216999
    Cl    = 0.0168316
    Cl(f) = 0.013006
    Cl(r) = 0.00382559

Time = 40s

smoothSolver:  Solving for Ux, Initial residual = 0.00247488, Final residual = 0.000244022, No Iterations 2
smoothSolver:  Solving for Uy, Initial residual = 0.00635248, Final residual = 0.000616592, No Iterations 2
smoothSolver:  Solving for Uz, Initial residual = 0.00641349, Final residual = 0.00061997, No Iterations 2
GAMG:  Solving for p, Initial residual = 0.0311654, Final residual = 0.00271264, No Iterations 2
time step continuity errors : sum local = 0.000528525, global = 6.96038e-05, cumulative = -0.000489476
smoothSolver:  Solving for nuTilda, Initial residual = 0.00372247, Final residual = 0.000371029, No Iterations 2
ExecutionTime = 57.9689 s  ClockTime = 59 s

forceCoeffs forces write:
    Cm    = 0.00386209
    Cd    = 0.0208963
    Cl    = 0.0154269
    Cl(f) = 0.0115755
    Cl(r) = 0.00385135

Time = 41s

smoothSolver:  Solving for Ux, Initial residual = 0.00248949, Final residual = 0.00024663, No Iterations 2
smoothSolver:  Solving for Uy, Initial residual = 0.00623982, Final residual = 0.000605676, No Iterations 2
smoothSolver:  Solving for Uz, Initial residual = 0.00616108, Final residual = 0.000594473, No Iterations 2
GAMG:  Solving for p, Initial residual = 0.0308215, Final residual = 0.00230432, No Iterations 2
time step continuity errors : sum local = 0.000453384, global = 2.76189e-05, cumulative = -0.000461857
smoothSolver:  Solving for nuTilda, Initial residual = 0.00365535, Final residual = 0.000364778, No Iterations 2
ExecutionTime = 59.1872 s  ClockTime = 60 s

forceCoeffs forces write:
    Cm    = 0.00346303
    Cd    = 0.0208292
    Cl    = 0.0147676
    Cl(f) = 0.0108469
    Cl(r) = 0.00392079

Time = 42s

smoothSolver:  Solving for Ux, Initial residual = 0.00244216, Final residual = 0.000243028, No Iterations 2
smoothSolver:  Solving for Uy, Initial residual = 0.0061513, Final residual = 0.000599697, No Iterations 2
smoothSolver:  Solving for Uz, Initial residual = 0.00598818, Final residual = 0.000579237, No Iterations 2
GAMG:  Solving for p, Initial residual = 0.0286792, Final residual = 0.00258676, No Iterations 2
time step continuity errors : sum local = 0.000509188, global = 1.21869e-05, cumulative = -0.00044967
smoothSolver:  Solving for nuTilda, Initial residual = 0.00359166, Final residual = 0.000358824, No Iterations 2
ExecutionTime = 60.418 s  ClockTime = 61 s

forceCoeffs forces write:
    Cm    = 0.0032848
    Cd    = 0.02107
    Cl    = 0.0146925
    Cl(f) = 0.010631
    Cl(r) = 0.00406145

Time = 43s

smoothSolver:  Solving for Ux, Initial residual = 0.00236793, Final residual = 0.000235769, No Iterations 2
smoothSolver:  Solving for Uy, Initial residual = 0.00612936, Final residual = 0.000601789, No Iterations 2
smoothSolver:  Solving for Uz, Initial residual = 0.00594622, Final residual = 0.000578804, No Iterations 2
GAMG:  Solving for p, Initial residual = 0.0256512, Final residual = 0.00243047, No Iterations 2
time step continuity errors : sum local = 0.000475457, global = -1.59322e-05, cumulative = -0.000465602
smoothSolver:  Solving for nuTilda, Initial residual = 0.0035315, Final residual = 0.000353141, No Iterations 2
ExecutionTime = 61.7387 s  ClockTime = 63 s

forceCoeffs forces write:
    Cm    = 0.00342424
    Cd    = 0.0213829
    Cl    = 0.0153362
    Cl(f) = 0.0110923
    Cl(r) = 0.00424386

Time = 44s

smoothSolver:  Solving for Ux, Initial residual = 0.00230535, Final residual = 0.000227572, No Iterations 2
smoothSolver:  Solving for Uy, Initial residual = 0.0062259, Final residual = 0.000616968, No Iterations 2
smoothSolver:  Solving for Uz, Initial residual = 0.00609231, Final residual = 0.000598045, No Iterations 2
GAMG:  Solving for p, Initial residual = 0.0241515, Final residual = 0.00208877, No Iterations 2
time step continuity errors : sum local = 0.000402764, global = -4.85188e-05, cumulative = -0.000514121
smoothSolver:  Solving for nuTilda, Initial residual = 0.0034736, Final residual = 9.80389e-05, No Iterations 3
ExecutionTime = 63.0878 s  ClockTime = 64 s

forceCoeffs forces write:
    Cm    = 0.00377498
    Cd    = 0.0215502
    Cl    = 0.0163301
    Cl(f) = 0.01194
    Cl(r) = 0.00439008

Time = 45s

smoothSolver:  Solving for Ux, Initial residual = 0.00225393, Final residual = 0.000221248, No Iterations 2
smoothSolver:  Solving for Uy, Initial residual = 0.00632884, Final residual = 0.000631773, No Iterations 2
smoothSolver:  Solving for Uz, Initial residual = 0.00628897, Final residual = 0.000622601, No Iterations 2
GAMG:  Solving for p, Initial residual = 0.0239752, Final residual = 0.00180509, No Iterations 2
time step continuity errors : sum local = 0.000341808, global = -1.69616e-05, cumulative = -0.000531083
smoothSolver:  Solving for nuTilda, Initial residual = 0.00341258, Final residual = 9.71916e-05, No Iterations 3
ExecutionTime = 64.6996 s  ClockTime = 65 s

forceCoeffs forces write:
    Cm    = 0.00407113
    Cd    = 0.0214812
    Cl    = 0.0170134
    Cl(f) = 0.0125778
    Cl(r) = 0.00443556

Time = 46s

smoothSolver:  Solving for Ux, Initial residual = 0.00221084, Final residual = 0.000217698, No Iterations 2
smoothSolver:  Solving for Uy, Initial residual = 0.0062873, Final residual = 0.000177656, No Iterations 3
smoothSolver:  Solving for Uz, Initial residual = 0.00636474, Final residual = 0.000634205, No Iterations 2
GAMG:  Solving for p, Initial residual = 0.0231551, Final residual = 0.00175988, No Iterations 2
time step continuity errors : sum local = 0.000328154, global = -1.56561e-05, cumulative = -0.000546739
smoothSolver:  Solving for nuTilda, Initial residual = 0.00335477, Final residual = 9.61283e-05, No Iterations 3
ExecutionTime = 66.0312 s  ClockTime = 67 s

forceCoeffs forces write:
    Cm    = 0.0042105
    Cd    = 0.0212684
    Cl    = 0.0172035
    Cl(f) = 0.0128122
    Cl(r) = 0.00439124

Time = 47s

smoothSolver:  Solving for Ux, Initial residual = 0.00218251, Final residual = 0.000216147, No Iterations 2
smoothSolver:  Solving for Uy, Initial residual = 0.00612597, Final residual = 0.000173893, No Iterations 3
smoothSolver:  Solving for Uz, Initial residual = 0.00633763, Final residual = 0.000179454, No Iterations 3
GAMG:  Solving for p, Initial residual = 0.0221311, Final residual = 0.00170467, No Iterations 2
time step continuity errors : sum local = 0.000315023, global = 1.10902e-05, cumulative = -0.000535649
smoothSolver:  Solving for nuTilda, Initial residual = 0.00329924, Final residual = 9.49509e-05, No Iterations 3
ExecutionTime = 67.3318 s  ClockTime = 68 s

forceCoeffs forces write:
    Cm    = 0.00416464
    Cd    = 0.0209919
    Cl    = 0.0169125
    Cl(f) = 0.0126209
    Cl(r) = 0.00429163

Time = 48s

smoothSolver:  Solving for Ux, Initial residual = 0.00217774, Final residual = 0.000216338, No Iterations 2
smoothSolver:  Solving for Uy, Initial residual = 0.00595243, Final residual = 0.000169286, No Iterations 3
smoothSolver:  Solving for Uz, Initial residual = 0.00622351, Final residual = 0.000177698, No Iterations 3
GAMG:  Solving for p, Initial residual = 0.0214353, Final residual = 0.00153914, No Iterations 2
time step continuity errors : sum local = 0.000283642, global = 3.19659e-05, cumulative = -0.000503683
smoothSolver:  Solving for nuTilda, Initial residual = 0.00324573, Final residual = 9.37308e-05, No Iterations 3
ExecutionTime = 68.7264 s  ClockTime = 70 s

forceCoeffs forces write:
    Cm    = 0.00394868
    Cd    = 0.0207221
    Cl    = 0.0162652
    Cl(f) = 0.0120813
    Cl(r) = 0.00418394

Time = 49s

smoothSolver:  Solving for Ux, Initial residual = 0.00217669, Final residual = 0.000216664, No Iterations 2
smoothSolver:  Solving for Uy, Initial residual = 0.00581101, Final residual = 0.000165563, No Iterations 3
smoothSolver:  Solving for Uz, Initial residual = 0.00606345, Final residual = 0.000174385, No Iterations 3
GAMG:  Solving for p, Initial residual = 0.0208456, Final residual = 0.00133275, No Iterations 2
time step continuity errors : sum local = 0.000246611, global = 2.07761e-05, cumulative = -0.000482907
smoothSolver:  Solving for nuTilda, Initial residual = 0.00319444, Final residual = 9.25123e-05, No Iterations 3
ExecutionTime = 70.0703 s  ClockTime = 71 s

forceCoeffs forces write:
    Cm    = 0.00368053
    Cd    = 0.0205088
    Cl    = 0.0155889
    Cl(f) = 0.011475
    Cl(r) = 0.00411392

Time = 50s

smoothSolver:  Solving for Ux, Initial residual = 0.00215917, Final residual = 0.000215344, No Iterations 2
smoothSolver:  Solving for Uy, Initial residual = 0.00571944, Final residual = 0.000163269, No Iterations 3
smoothSolver:  Solving for Uz, Initial residual = 0.00591036, Final residual = 0.000170962, No Iterations 3
GAMG:  Solving for p, Initial residual = 0.0198096, Final residual = 0.00132043, No Iterations 2
time step continuity errors : sum local = 0.000246327, global = 1.26901e-05, cumulative = -0.000470217
smoothSolver:  Solving for nuTilda, Initial residual = 0.00314529, Final residual = 9.13148e-05, No Iterations 3
ExecutionTime = 71.4403 s  ClockTime = 72 s

forceCoeffs forces write:
    Cm    = 0.00347548
    Cd    = 0.0203583
    Cl    = 0.0151276
    Cl(f) = 0.0110393
    Cl(r) = 0.00408832

Time = 51s

smoothSolver:  Solving for Ux, Initial residual = 0.0021275, Final residual = 0.00021232, No Iterations 2
smoothSolver:  Solving for Uy, Initial residual = 0.00566544, Final residual = 0.00016191, No Iterations 3
smoothSolver:  Solving for Uz, Initial residual = 0.00581212, Final residual = 0.000168567, No Iterations 3
GAMG:  Solving for p, Initial residual = 0.0185547, Final residual = 0.00126622, No Iterations 2
time step continuity errors : sum local = 0.000237914, global = 7.2851e-06, cumulative = -0.000462931
smoothSolver:  Solving for nuTilda, Initial residual = 0.00309786, Final residual = 9.01317e-05, No Iterations 3
ExecutionTime = 72.8193 s  ClockTime = 74 s

forceCoeffs forces write:
    Cm    = 0.00336853
    Cd    = 0.0202431
    Cl    = 0.01491
    Cl(f) = 0.0108235
    Cl(r) = 0.00408645

Time = 52s

smoothSolver:  Solving for Ux, Initial residual = 0.0020939, Final residual = 0.000208565, No Iterations 2
smoothSolver:  Solving for Uy, Initial residual = 0.0056275, Final residual = 0.000160907, No Iterations 3
smoothSolver:  Solving for Uz, Initial residual = 0.00576953, Final residual = 0.00016736, No Iterations 3
GAMG:  Solving for p, Initial residual = 0.017704, Final residual = 0.00113718, No Iterations 2
time step continuity errors : sum local = 0.000214498, global = -3.79301e-06, cumulative = -0.000466725
smoothSolver:  Solving for nuTilda, Initial residual = 0.00305276, Final residual = 8.89864e-05, No Iterations 3
ExecutionTime = 74.529 s  ClockTime = 75 s

forceCoeffs forces write:
    Cm    = 0.00336003
    Cd    = 0.0201452
    Cl    = 0.014896
    Cl(f) = 0.0108081
    Cl(r) = 0.00408798

Time = 53s

smoothSolver:  Solving for Ux, Initial residual = 0.00206512, Final residual = 0.000204887, No Iterations 2
smoothSolver:  Solving for Uy, Initial residual = 0.00559005, Final residual = 0.000159779, No Iterations 3
smoothSolver:  Solving for Uz, Initial residual = 0.00576679, Final residual = 0.000167027, No Iterations 3
GAMG:  Solving for p, Initial residual = 0.0173295, Final residual = 0.00107147, No Iterations 2
time step continuity errors : sum local = 0.000202078, global = -1.64521e-05, cumulative = -0.000483177
smoothSolver:  Solving for nuTilda, Initial residual = 0.00300957, Final residual = 8.7883e-05, No Iterations 3
ExecutionTime = 75.8338 s  ClockTime = 77 s

forceCoeffs forces write:
    Cm    = 0.00343148
    Cd    = 0.0200568
    Cl    = 0.0150164
    Cl(f) = 0.0109397
    Cl(r) = 0.00407672

Time = 54s

smoothSolver:  Solving for Ux, Initial residual = 0.0020409, Final residual = 0.000201776, No Iterations 2
smoothSolver:  Solving for Uy, Initial residual = 0.00555151, Final residual = 0.000158597, No Iterations 3
smoothSolver:  Solving for Uz, Initial residual = 0.00579486, Final residual = 0.000167203, No Iterations 3
GAMG:  Solving for p, Initial residual = 0.0172331, Final residual = 0.00115766, No Iterations 2
time step continuity errors : sum local = 0.000217367, global = -8.65853e-06, cumulative = -0.000491835
smoothSolver:  Solving for nuTilda, Initial residual = 0.00296731, Final residual = 8.68013e-05, No Iterations 3
ExecutionTime = 77.1066 s  ClockTime = 78 s

forceCoeffs forces write:
    Cm    = 0.00354115
    Cd    = 0.0199734
    Cl    = 0.0151643
    Cl(f) = 0.0111233
    Cl(r) = 0.00404098

Time = 55s

smoothSolver:  Solving for Ux, Initial residual = 0.00202022, Final residual = 0.00019964, No Iterations 2
smoothSolver:  Solving for Uy, Initial residual = 0.00551315, Final residual = 0.000157219, No Iterations 3
smoothSolver:  Solving for Uz, Initial residual = 0.00583648, Final residual = 0.00016749, No Iterations 3
GAMG:  Solving for p, Initial residual = 0.0172426, Final residual = 0.00114917, No Iterations 2
time step continuity errors : sum local = 0.000213812, global = -3.71249e-06, cumulative = -0.000495548
smoothSolver:  Solving for nuTilda, Initial residual = 0.00292679, Final residual = 8.57455e-05, No Iterations 3
ExecutionTime = 78.3626 s  ClockTime = 79 s

forceCoeffs forces write:
    Cm    = 0.0036196
    Cd    = 0.0198836
    Cl    = 0.0152029
    Cl(f) = 0.0112211
    Cl(r) = 0.00398185

Time = 56s

smoothSolver:  Solving for Ux, Initial residual = 0.00200262, Final residual = 0.000198208, No Iterations 2
smoothSolver:  Solving for Uy, Initial residual = 0.00546537, Final residual = 0.000155488, No Iterations 3
smoothSolver:  Solving for Uz, Initial residual = 0.00585212, Final residual = 0.000167084, No Iterations 3
GAMG:  Solving for p, Initial residual = 0.0172783, Final residual = 0.00101338, No Iterations 2
time step continuity errors : sum local = 0.000186737, global = -1.44254e-05, cumulative = -0.000509973
smoothSolver:  Solving for nuTilda, Initial residual = 0.00288757, Final residual = 8.47143e-05, No Iterations 3
ExecutionTime = 79.5811 s  ClockTime = 80 s

forceCoeffs forces write:
    Cm    = 0.00363795
    Cd    = 0.0197798
    Cl    = 0.015098
    Cl(f) = 0.011187
    Cl(r) = 0.00391106

Time = 57s

smoothSolver:  Solving for Ux, Initial residual = 0.00198511, Final residual = 0.000196903, No Iterations 2
smoothSolver:  Solving for Uy, Initial residual = 0.00540715, Final residual = 0.000153432, No Iterations 3
smoothSolver:  Solving for Uz, Initial residual = 0.00582835, Final residual = 0.000165704, No Iterations 3
GAMG:  Solving for p, Initial residual = 0.0171724, Final residual = 0.000911083, No Iterations 2
time step continuity errors : sum local = 0.000166842, global = -2.01143e-05, cumulative = -0.000530087
smoothSolver:  Solving for nuTilda, Initial residual = 0.00284964, Final residual = 8.37013e-05, No Iterations 3
ExecutionTime = 80.8663 s  ClockTime = 82 s

forceCoeffs forces write:
    Cm    = 0.00360736
    Cd    = 0.0196618
    Cl    = 0.0148869
    Cl(f) = 0.0110508
    Cl(r) = 0.00383608

Time = 58s

smoothSolver:  Solving for Ux, Initial residual = 0.00196587, Final residual = 0.00019544, No Iterations 2
smoothSolver:  Solving for Uy, Initial residual = 0.00534571, Final residual = 0.000151245, No Iterations 3
smoothSolver:  Solving for Uz, Initial residual = 0.00577834, Final residual = 0.000163652, No Iterations 3
GAMG:  Solving for p, Initial residual = 0.0169567, Final residual = 0.000885462, No Iterations 2
time step continuity errors : sum local = 0.000161729, global = -1.23573e-05, cumulative = -0.000542445
smoothSolver:  Solving for nuTilda, Initial residual = 0.00281271, Final residual = 8.26979e-05, No Iterations 3
ExecutionTime = 82.2782 s  ClockTime = 83 s

forceCoeffs forces write:
    Cm    = 0.00354376
    Cd    = 0.0195301
    Cl    = 0.0145935
    Cl(f) = 0.0108405
    Cl(r) = 0.003753

Time = 59s

smoothSolver:  Solving for Ux, Initial residual = 0.00194661, Final residual = 0.000193894, No Iterations 2
smoothSolver:  Solving for Uy, Initial residual = 0.00528111, Final residual = 0.000149014, No Iterations 3
smoothSolver:  Solving for Uz, Initial residual = 0.00571903, Final residual = 0.000161209, No Iterations 3
GAMG:  Solving for p, Initial residual = 0.016703, Final residual = 0.000902035, No Iterations 2
time step continuity errors : sum local = 0.000164737, global = -8.81232e-07, cumulative = -0.000543326
smoothSolver:  Solving for nuTilda, Initial residual = 0.00277711, Final residual = 8.17206e-05, No Iterations 3
ExecutionTime = 85.0366 s  ClockTime = 86 s

forceCoeffs forces write:
    Cm    = 0.00346038
    Cd    = 0.0193884
    Cl    = 0.0142386
    Cl(f) = 0.0105797
    Cl(r) = 0.00365892

Time = 60s

smoothSolver:  Solving for Ux, Initial residual = 0.00192795, Final residual = 0.000192317, No Iterations 2
smoothSolver:  Solving for Uy, Initial residual = 0.00521403, Final residual = 0.000146759, No Iterations 3
smoothSolver:  Solving for Uz, Initial residual = 0.00564811, Final residual = 0.000158591, No Iterations 3
GAMG:  Solving for p, Initial residual = 0.0164287, Final residual = 0.000913435, No Iterations 2
time step continuity errors : sum local = 0.000167153, global = 1.01175e-05, cumulative = -0.000533208
smoothSolver:  Solving for nuTilda, Initial residual = 0.00274249, Final residual = 8.07795e-05, No Iterations 3
ExecutionTime = 87.3653 s  ClockTime = 88 s

forceCoeffs forces write:
    Cm    = 0.0033778
    Cd    = 0.0192471
    Cl    = 0.0138774
    Cl(f) = 0.0103165
    Cl(r) = 0.00356089

Time = 61s

smoothSolver:  Solving for Ux, Initial residual = 0.00191025, Final residual = 0.000190703, No Iterations 2
smoothSolver:  Solving for Uy, Initial residual = 0.00514797, Final residual = 0.000144604, No Iterations 3
smoothSolver:  Solving for Uz, Initial residual = 0.00557808, Final residual = 0.000156103, No Iterations 3
GAMG:  Solving for p, Initial residual = 0.0162195, Final residual = 0.000900245, No Iterations 2
time step continuity errors : sum local = 0.000165322, global = 1.18534e-05, cumulative = -0.000521355
smoothSolver:  Solving for nuTilda, Initial residual = 0.0027083, Final residual = 7.98375e-05, No Iterations 3
ExecutionTime = 88.9029 s  ClockTime = 90 s

forceCoeffs forces write:
    Cm    = 0.0033167
    Cd    = 0.0191155
    Cl    = 0.0135753
    Cl(f) = 0.0101043
    Cl(r) = 0.00347094

Time = 62s

smoothSolver:  Solving for Ux, Initial residual = 0.0018931, Final residual = 0.000188948, No Iterations 2
smoothSolver:  Solving for Uy, Initial residual = 0.00508601, Final residual = 0.000142637, No Iterations 3
smoothSolver:  Solving for Uz, Initial residual = 0.00552607, Final residual = 0.000551775, No Iterations 2
GAMG:  Solving for p, Initial residual = 0.0161537, Final residual = 0.000846816, No Iterations 2
time step continuity errors : sum local = 0.000156213, global = 1.13805e-05, cumulative = -0.000509974
smoothSolver:  Solving for nuTilda, Initial residual = 0.00267478, Final residual = 7.89064e-05, No Iterations 3
ExecutionTime = 90.1078 s  ClockTime = 91 s

forceCoeffs forces write:
    Cm    = 0.00328264
    Cd    = 0.0189997
    Cl    = 0.0133599
    Cl(f) = 0.0099626
    Cl(r) = 0.00339733

Time = 63s

smoothSolver:  Solving for Ux, Initial residual = 0.00187415, Final residual = 0.000186908, No Iterations 2
smoothSolver:  Solving for Uy, Initial residual = 0.0050174, Final residual = 0.00014062, No Iterations 3
smoothSolver:  Solving for Uz, Initial residual = 0.00550342, Final residual = 0.000548061, No Iterations 2
GAMG:  Solving for p, Initial residual = 0.016129, Final residual = 0.000834987, No Iterations 2
time step continuity errors : sum local = 0.000154597, global = 7.06846e-06, cumulative = -0.000502906
smoothSolver:  Solving for nuTilda, Initial residual = 0.00264236, Final residual = 7.79944e-05, No Iterations 3
ExecutionTime = 91.4487 s  ClockTime = 92 s

forceCoeffs forces write:
    Cm    = 0.00327036
    Cd    = 0.0188933
    Cl    = 0.0132075
    Cl(f) = 0.00987411
    Cl(r) = 0.00333339

Time = 64s

smoothSolver:  Solving for Ux, Initial residual = 0.001855, Final residual = 0.000184824, No Iterations 2
smoothSolver:  Solving for Uy, Initial residual = 0.00494922, Final residual = 0.000138719, No Iterations 3
smoothSolver:  Solving for Uz, Initial residual = 0.00548902, Final residual = 0.000545895, No Iterations 2
GAMG:  Solving for p, Initial residual = 0.0160789, Final residual = 0.000851736, No Iterations 2
time step continuity errors : sum local = 0.000158069, global = -2.07749e-06, cumulative = -0.000504984
smoothSolver:  Solving for nuTilda, Initial residual = 0.00261028, Final residual = 7.70853e-05, No Iterations 3
ExecutionTime = 92.722 s  ClockTime = 94 s

forceCoeffs forces write:
    Cm    = 0.00327167
    Cd    = 0.0187876
    Cl    = 0.0130823
    Cl(f) = 0.00981284
    Cl(r) = 0.00326949

Time = 65s

smoothSolver:  Solving for Ux, Initial residual = 0.00183687, Final residual = 0.000182848, No Iterations 2
smoothSolver:  Solving for Uy, Initial residual = 0.00488747, Final residual = 0.000136953, No Iterations 3
smoothSolver:  Solving for Uz, Initial residual = 0.00547853, Final residual = 0.00054448, No Iterations 2
GAMG:  Solving for p, Initial residual = 0.0160648, Final residual = 0.000874966, No Iterations 2
time step continuity errors : sum local = 0.000162546, global = -1.29411e-05, cumulative = -0.000517925
smoothSolver:  Solving for nuTilda, Initial residual = 0.00257864, Final residual = 7.61838e-05, No Iterations 3
ExecutionTime = 93.9534 s  ClockTime = 95 s

forceCoeffs forces write:
    Cm    = 0.00327842
    Cd    = 0.0186761
    Cl    = 0.0129552
    Cl(f) = 0.009756
    Cl(r) = 0.00319916

Time = 66s

smoothSolver:  Solving for Ux, Initial residual = 0.00181958, Final residual = 0.000181106, No Iterations 2
smoothSolver:  Solving for Uy, Initial residual = 0.00483288, Final residual = 0.00013539, No Iterations 3
smoothSolver:  Solving for Uz, Initial residual = 0.00547225, Final residual = 0.000543289, No Iterations 2
GAMG:  Solving for p, Initial residual = 0.0161148, Final residual = 0.000890502, No Iterations 2
time step continuity errors : sum local = 0.000165399, global = -2.08119e-05, cumulative = -0.000538736
smoothSolver:  Solving for nuTilda, Initial residual = 0.002548, Final residual = 7.52997e-05, No Iterations 3
ExecutionTime = 95.2776 s  ClockTime = 96 s

forceCoeffs forces write:
    Cm    = 0.00328229
    Cd    = 0.0185571
    Cl    = 0.0128049
    Cl(f) = 0.00968475
    Cl(r) = 0.00312018

Time = 67s

smoothSolver:  Solving for Ux, Initial residual = 0.0018033, Final residual = 0.000179617, No Iterations 2
smoothSolver:  Solving for Uy, Initial residual = 0.00478374, Final residual = 0.000134019, No Iterations 3
smoothSolver:  Solving for Uz, Initial residual = 0.00545471, Final residual = 0.000541918, No Iterations 2
GAMG:  Solving for p, Initial residual = 0.0161328, Final residual = 0.000877744, No Iterations 2
time step continuity errors : sum local = 0.000162835, global = -2.45095e-05, cumulative = -0.000563246
smoothSolver:  Solving for nuTilda, Initial residual = 0.00251815, Final residual = 7.44267e-05, No Iterations 3
ExecutionTime = 96.5211 s  ClockTime = 97 s

forceCoeffs forces write:
    Cm    = 0.00327643
    Cd    = 0.0184327
    Cl    = 0.0126221
    Cl(f) = 0.00958747
    Cl(r) = 0.00303461

Time = 68s

smoothSolver:  Solving for Ux, Initial residual = 0.0017873, Final residual = 0.000178289, No Iterations 2
smoothSolver:  Solving for Uy, Initial residual = 0.00473832, Final residual = 0.000132784, No Iterations 3
smoothSolver:  Solving for Uz, Initial residual = 0.00542724, Final residual = 0.000539825, No Iterations 2
GAMG:  Solving for p, Initial residual = 0.0160883, Final residual = 0.000834419, No Iterations 2
time step continuity errors : sum local = 0.000154539, global = -2.50771e-05, cumulative = -0.000588323
smoothSolver:  Solving for nuTilda, Initial residual = 0.00248856, Final residual = 7.35555e-05, No Iterations 3
ExecutionTime = 97.9263 s  ClockTime = 99 s

forceCoeffs forces write:
    Cm    = 0.00325806
    Cd    = 0.0183069
    Cl    = 0.0124084
    Cl(f) = 0.00946223
    Cl(r) = 0.00294612

Time = 69s

smoothSolver:  Solving for Ux, Initial residual = 0.00177103, Final residual = 0.000176991, No Iterations 2
smoothSolver:  Solving for Uy, Initial residual = 0.00469294, Final residual = 0.00013158, No Iterations 3
smoothSolver:  Solving for Uz, Initial residual = 0.00539936, Final residual = 0.000537027, No Iterations 2
GAMG:  Solving for p, Initial residual = 0.0159759, Final residual = 0.000789506, No Iterations 2
time step continuity errors : sum local = 0.00014602, global = -2.24816e-05, cumulative = -0.000610805
smoothSolver:  Solving for nuTilda, Initial residual = 0.00245965, Final residual = 7.27028e-05, No Iterations 3
ExecutionTime = 99.3872 s  ClockTime = 100 s

forceCoeffs forces write:
    Cm    = 0.00322867
    Cd    = 0.0181834
    Cl    = 0.0121721
    Cl(f) = 0.0093147
    Cl(r) = 0.00285735

Time = 70s

smoothSolver:  Solving for Ux, Initial residual = 0.00175413, Final residual = 4.95323e-05, No Iterations 3
smoothSolver:  Solving for Uy, Initial residual = 0.00464425, Final residual = 0.000130406, No Iterations 3
smoothSolver:  Solving for Uz, Initial residual = 0.00537215, Final residual = 0.000533901, No Iterations 2
GAMG:  Solving for p, Initial residual = 0.0160997, Final residual = 0.000766795, No Iterations 2
time step continuity errors : sum local = 0.000141748, global = -1.58381e-05, cumulative = -0.000626643
smoothSolver:  Solving for nuTilda, Initial residual = 0.00243188, Final residual = 7.18719e-05, No Iterations 3
ExecutionTime = 100.788 s  ClockTime = 102 s

forceCoeffs forces write:
    Cm    = 0.00318718
    Cd    = 0.0180592
    Cl    = 0.0119172
    Cl(f) = 0.00914576
    Cl(r) = 0.00277141

Time = 71s

smoothSolver:  Solving for Ux, Initial residual = 0.00173259, Final residual = 4.90856e-05, No Iterations 3
smoothSolver:  Solving for Uy, Initial residual = 0.00460386, Final residual = 0.00012948, No Iterations 3
smoothSolver:  Solving for Uz, Initial residual = 0.00534401, Final residual = 0.000531206, No Iterations 2
GAMG:  Solving for p, Initial residual = 0.0161538, Final residual = 0.000770285, No Iterations 2
time step continuity errors : sum local = 0.000142481, global = -6.3599e-06, cumulative = -0.000633003
smoothSolver:  Solving for nuTilda, Initial residual = 0.00240448, Final residual = 7.10503e-05, No Iterations 3
ExecutionTime = 102.241 s  ClockTime = 103 s

forceCoeffs forces write:
    Cm    = 0.00313995
    Cd    = 0.0179361
    Cl    = 0.0116532
    Cl(f) = 0.00896654
    Cl(r) = 0.00268663

Time = 72s

smoothSolver:  Solving for Ux, Initial residual = 0.00171112, Final residual = 4.85839e-05, No Iterations 3
smoothSolver:  Solving for Uy, Initial residual = 0.00456527, Final residual = 0.000128632, No Iterations 3
smoothSolver:  Solving for Uz, Initial residual = 0.00531554, Final residual = 0.000528913, No Iterations 2
GAMG:  Solving for p, Initial residual = 0.0160261, Final residual = 0.000774887, No Iterations 2
time step continuity errors : sum local = 0.000143584, global = 5.14091e-06, cumulative = -0.000627862
smoothSolver:  Solving for nuTilda, Initial residual = 0.00237756, Final residual = 7.02406e-05, No Iterations 3
ExecutionTime = 103.966 s  ClockTime = 105 s

forceCoeffs forces write:
    Cm    = 0.00309381
    Cd    = 0.0178167
    Cl    = 0.0113922
    Cl(f) = 0.00878993
    Cl(r) = 0.00260231

Time = 73s

smoothSolver:  Solving for Ux, Initial residual = 0.0016917, Final residual = 4.80824e-05, No Iterations 3
smoothSolver:  Solving for Uy, Initial residual = 0.00452202, Final residual = 0.00012773, No Iterations 3
smoothSolver:  Solving for Uz, Initial residual = 0.00529344, Final residual = 0.000526858, No Iterations 2
GAMG:  Solving for p, Initial residual = 0.0158604, Final residual = 0.00078341, No Iterations 2
time step continuity errors : sum local = 0.000145559, global = 1.11305e-05, cumulative = -0.000616731
smoothSolver:  Solving for nuTilda, Initial residual = 0.00235142, Final residual = 6.94566e-05, No Iterations 3
ExecutionTime = 105.359 s  ClockTime = 106 s

forceCoeffs forces write:
    Cm    = 0.00305454
    Cd    = 0.0177031
    Cl    = 0.0111469
    Cl(f) = 0.00862797
    Cl(r) = 0.00251889

Time = 74s

smoothSolver:  Solving for Ux, Initial residual = 0.0016749, Final residual = 4.75862e-05, No Iterations 3
smoothSolver:  Solving for Uy, Initial residual = 0.00447372, Final residual = 0.00012672, No Iterations 3
smoothSolver:  Solving for Uz, Initial residual = 0.00526705, Final residual = 0.000524593, No Iterations 2
GAMG:  Solving for p, Initial residual = 0.0157812, Final residual = 0.000792764, No Iterations 2
time step continuity errors : sum local = 0.000147847, global = 1.39495e-05, cumulative = -0.000602782
smoothSolver:  Solving for nuTilda, Initial residual = 0.0023259, Final residual = 6.87095e-05, No Iterations 3
ExecutionTime = 107.178 s  ClockTime = 108 s

forceCoeffs forces write:
    Cm    = 0.00302585
    Cd    = 0.0175979
    Cl    = 0.0109279
    Cl(f) = 0.00848978
    Cl(r) = 0.00243808

Time = 75s

smoothSolver:  Solving for Ux, Initial residual = 0.00165994, Final residual = 4.71046e-05, No Iterations 3
smoothSolver:  Solving for Uy, Initial residual = 0.00441998, Final residual = 0.000125505, No Iterations 3
smoothSolver:  Solving for Uz, Initial residual = 0.00523104, Final residual = 0.000521658, No Iterations 2
GAMG:  Solving for p, Initial residual = 0.0157407, Final residual = 0.000790624, No Iterations 2
time step continuity errors : sum local = 0.000148069, global = 1.43383e-05, cumulative = -0.000588443
smoothSolver:  Solving for nuTilda, Initial residual = 0.00230073, Final residual = 6.7974e-05, No Iterations 3
ExecutionTime = 109.335 s  ClockTime = 110 s

forceCoeffs forces write:
    Cm    = 0.00300743
    Cd    = 0.0175016
    Cl    = 0.0107377
    Cl(f) = 0.00837628
    Cl(r) = 0.00236141

Time = 76s

smoothSolver:  Solving for Ux, Initial residual = 0.00164546, Final residual = 4.66373e-05, No Iterations 3
smoothSolver:  Solving for Uy, Initial residual = 0.00436237, Final residual = 0.000124145, No Iterations 3
smoothSolver:  Solving for Uz, Initial residual = 0.00519266, Final residual = 0.000518362, No Iterations 2
GAMG:  Solving for p, Initial residual = 0.0156807, Final residual = 0.000777805, No Iterations 2
time step continuity errors : sum local = 0.000146257, global = 1.23013e-05, cumulative = -0.000576142
smoothSolver:  Solving for nuTilda, Initial residual = 0.00227635, Final residual = 6.72523e-05, No Iterations 3
ExecutionTime = 110.79 s  ClockTime = 112 s

forceCoeffs forces write:
    Cm    = 0.00299564
    Cd    = 0.0174129
    Cl    = 0.0105697
    Cl(f) = 0.00828049
    Cl(r) = 0.0022892

Time = 77s

smoothSolver:  Solving for Ux, Initial residual = 0.00163052, Final residual = 4.61689e-05, No Iterations 3
smoothSolver:  Solving for Uy, Initial residual = 0.00430527, Final residual = 0.000122739, No Iterations 3
smoothSolver:  Solving for Uz, Initial residual = 0.00515754, Final residual = 0.000515296, No Iterations 2
GAMG:  Solving for p, Initial residual = 0.0155945, Final residual = 0.000757471, No Iterations 2
time step continuity errors : sum local = 0.000142922, global = 9.08675e-06, cumulative = -0.000567055
smoothSolver:  Solving for nuTilda, Initial residual = 0.00225262, Final residual = 6.65442e-05, No Iterations 3
ExecutionTime = 112.032 s  ClockTime = 113 s

forceCoeffs forces write:
    Cm    = 0.00298585
    Cd    = 0.0173299
    Cl    = 0.0104138
    Cl(f) = 0.00819273
    Cl(r) = 0.00222103

Time = 78s

smoothSolver:  Solving for Ux, Initial residual = 0.00161429, Final residual = 4.56854e-05, No Iterations 3
smoothSolver:  Solving for Uy, Initial residual = 0.00425107, Final residual = 0.000121341, No Iterations 3
smoothSolver:  Solving for Uz, Initial residual = 0.00511856, Final residual = 0.000142747, No Iterations 3
GAMG:  Solving for p, Initial residual = 0.0159061, Final residual = 0.000761811, No Iterations 2
time step continuity errors : sum local = 0.000144132, global = 4.24792e-06, cumulative = -0.000562807
smoothSolver:  Solving for nuTilda, Initial residual = 0.00222955, Final residual = 6.58472e-05, No Iterations 3
ExecutionTime = 113.342 s  ClockTime = 114 s

forceCoeffs forces write:
    Cm    = 0.00297573
    Cd    = 0.0172559
    Cl    = 0.0102647
    Cl(f) = 0.0081081
    Cl(r) = 0.00215664

Time = 79s

smoothSolver:  Solving for Ux, Initial residual = 0.00159804, Final residual = 4.52059e-05, No Iterations 3
smoothSolver:  Solving for Uy, Initial residual = 0.0042084, Final residual = 0.000120141, No Iterations 3
smoothSolver:  Solving for Uz, Initial residual = 0.00506319, Final residual = 0.000141737, No Iterations 3
GAMG:  Solving for p, Initial residual = 0.0159734, Final residual = 0.000758259, No Iterations 2
time step continuity errors : sum local = 0.000143797, global = 2.99037e-07, cumulative = -0.000562508
smoothSolver:  Solving for nuTilda, Initial residual = 0.00220722, Final residual = 6.51593e-05, No Iterations 3
ExecutionTime = 114.963 s  ClockTime = 116 s

forceCoeffs forces write:
    Cm    = 0.00296152
    Cd    = 0.0171867
    Cl    = 0.0101137
    Cl(f) = 0.00801835
    Cl(r) = 0.00209532

Time = 80s

smoothSolver:  Solving for Ux, Initial residual = 0.00158182, Final residual = 4.4716e-05, No Iterations 3
smoothSolver:  Solving for Uy, Initial residual = 0.00417085, Final residual = 0.000119032, No Iterations 3
smoothSolver:  Solving for Uz, Initial residual = 0.00501132, Final residual = 0.000140522, No Iterations 3
GAMG:  Solving for p, Initial residual = 0.0157987, Final residual = 0.000744935, No Iterations 2
time step continuity errors : sum local = 0.000141566, global = -1.7503e-06, cumulative = -0.000564259
smoothSolver:  Solving for nuTilda, Initial residual = 0.00218544, Final residual = 6.44853e-05, No Iterations 3
ExecutionTime = 116.468 s  ClockTime = 117 s

forceCoeffs forces write:
    Cm    = 0.00294159
    Cd    = 0.0171194
    Cl    = 0.00995855
    Cl(f) = 0.00792087
    Cl(r) = 0.00203768

Time = 81s

smoothSolver:  Solving for Ux, Initial residual = 0.00156521, Final residual = 4.42034e-05, No Iterations 3
smoothSolver:  Solving for Uy, Initial residual = 0.00413268, Final residual = 0.000117847, No Iterations 3
smoothSolver:  Solving for Uz, Initial residual = 0.00496338, Final residual = 0.00013926, No Iterations 3
GAMG:  Solving for p, Initial residual = 0.0155583, Final residual = 0.00073081, No Iterations 2
time step continuity errors : sum local = 0.000139166, global = -1.50439e-06, cumulative = -0.000565763
smoothSolver:  Solving for nuTilda, Initial residual = 0.00216382, Final residual = 6.38204e-05, No Iterations 3
ExecutionTime = 118.243 s  ClockTime = 119 s

forceCoeffs forces write:
    Cm    = 0.00291665
    Cd    = 0.0170524
    Cl    = 0.00980456
    Cl(f) = 0.00781893
    Cl(r) = 0.00198564

Time = 82s

smoothSolver:  Solving for Ux, Initial residual = 0.00154838, Final residual = 4.36714e-05, No Iterations 3
smoothSolver:  Solving for Uy, Initial residual = 0.00409147, Final residual = 0.000116499, No Iterations 3
smoothSolver:  Solving for Uz, Initial residual = 0.00491882, Final residual = 0.000138031, No Iterations 3
GAMG:  Solving for p, Initial residual = 0.0153641, Final residual = 0.000721552, No Iterations 2
time step continuity errors : sum local = 0.000137679, global = 9.33721e-07, cumulative = -0.000564829
smoothSolver:  Solving for nuTilda, Initial residual = 0.00214218, Final residual = 6.31673e-05, No Iterations 3
ExecutionTime = 119.864 s  ClockTime = 121 s

forceCoeffs forces write:
    Cm    = 0.00288898
    Cd    = 0.0169859
    Cl    = 0.0096609
    Cl(f) = 0.00771943
    Cl(r) = 0.00194147

Time = 83s

smoothSolver:  Solving for Ux, Initial residual = 0.00153143, Final residual = 4.31227e-05, No Iterations 3
smoothSolver:  Solving for Uy, Initial residual = 0.00404777, Final residual = 0.00011501, No Iterations 3
smoothSolver:  Solving for Uz, Initial residual = 0.0048805, Final residual = 0.000136787, No Iterations 3
GAMG:  Solving for p, Initial residual = 0.0152039, Final residual = 0.000716512, No Iterations 2
time step continuity errors : sum local = 0.000137004, global = 4.99774e-06, cumulative = -0.000559832
smoothSolver:  Solving for nuTilda, Initial residual = 0.00212042, Final residual = 6.25323e-05, No Iterations 3
ExecutionTime = 121.525 s  ClockTime = 122 s

forceCoeffs forces write:
    Cm    = 0.00286151
    Cd    = 0.0169213
    Cl    = 0.00953647
    Cl(f) = 0.00762975
    Cl(r) = 0.00190672

Time = 84s

smoothSolver:  Solving for Ux, Initial residual = 0.00151431, Final residual = 4.25606e-05, No Iterations 3
smoothSolver:  Solving for Uy, Initial residual = 0.00400225, Final residual = 0.000113463, No Iterations 3
smoothSolver:  Solving for Uz, Initial residual = 0.00484838, Final residual = 0.000135544, No Iterations 3
GAMG:  Solving for p, Initial residual = 0.0150303, Final residual = 0.000711669, No Iterations 2
time step continuity errors : sum local = 0.000136382, global = 8.97915e-06, cumulative = -0.000550852
smoothSolver:  Solving for nuTilda, Initial residual = 0.00209912, Final residual = 6.19103e-05, No Iterations 3
ExecutionTime = 123.151 s  ClockTime = 124 s

forceCoeffs forces write:
    Cm    = 0.00283678
    Cd    = 0.0168598
    Cl    = 0.00943692
    Cl(f) = 0.00755524
    Cl(r) = 0.00188168

Time = 85s

smoothSolver:  Solving for Ux, Initial residual = 0.00149728, Final residual = 0.000149533, No Iterations 2
smoothSolver:  Solving for Uy, Initial residual = 0.00395744, Final residual = 0.000111928, No Iterations 3
smoothSolver:  Solving for Uz, Initial residual = 0.00481088, Final residual = 0.000134229, No Iterations 3
GAMG:  Solving for p, Initial residual = 0.0149702, Final residual = 0.00070429, No Iterations 2
time step continuity errors : sum local = 0.000135319, global = 1.11924e-05, cumulative = -0.00053966
smoothSolver:  Solving for nuTilda, Initial residual = 0.00207813, Final residual = 6.12925e-05, No Iterations 3
ExecutionTime = 124.67 s  ClockTime = 126 s

forceCoeffs forces write:
    Cm    = 0.00282008
    Cd    = 0.0168135
    Cl    = 0.00937487
    Cl(f) = 0.00750752
    Cl(r) = 0.00186735

Time = 86s

smoothSolver:  Solving for Ux, Initial residual = 0.00148376, Final residual = 0.000147755, No Iterations 2
smoothSolver:  Solving for Uy, Initial residual = 0.00390374, Final residual = 0.000110147, No Iterations 3
smoothSolver:  Solving for Uz, Initial residual = 0.00475997, Final residual = 0.000132601, No Iterations 3
GAMG:  Solving for p, Initial residual = 0.0148064, Final residual = 0.00070278, No Iterations 2
time step continuity errors : sum local = 0.000135408, global = 1.26834e-05, cumulative = -0.000526977
smoothSolver:  Solving for nuTilda, Initial residual = 0.00205786, Final residual = 6.06874e-05, No Iterations 3
ExecutionTime = 125.917 s  ClockTime = 127 s

forceCoeffs forces write:
    Cm    = 0.00281011
    Cd    = 0.0167782
    Cl    = 0.00934077
    Cl(f) = 0.0074805
    Cl(r) = 0.00186027

Time = 87s

smoothSolver:  Solving for Ux, Initial residual = 0.00147109, Final residual = 0.000146067, No Iterations 2
smoothSolver:  Solving for Uy, Initial residual = 0.00384841, Final residual = 0.000108303, No Iterations 3
smoothSolver:  Solving for Uz, Initial residual = 0.00470438, Final residual = 0.000130753, No Iterations 3
GAMG:  Solving for p, Initial residual = 0.0144525, Final residual = 0.000693637, No Iterations 2
time step continuity errors : sum local = 0.000134033, global = 1.34894e-05, cumulative = -0.000513487
smoothSolver:  Solving for nuTilda, Initial residual = 0.00203758, Final residual = 6.00967e-05, No Iterations 3
ExecutionTime = 127.159 s  ClockTime = 128 s

forceCoeffs forces write:
    Cm    = 0.00280478
    Cd    = 0.0167492
    Cl    = 0.00932421
    Cl(f) = 0.00746688
    Cl(r) = 0.00185733

Time = 88s

smoothSolver:  Solving for Ux, Initial residual = 0.00145711, Final residual = 0.00014435, No Iterations 2
smoothSolver:  Solving for Uy, Initial residual = 0.00379593, Final residual = 0.000106486, No Iterations 3
smoothSolver:  Solving for Uz, Initial residual = 0.00464483, Final residual = 0.000463958, No Iterations 2
GAMG:  Solving for p, Initial residual = 0.0141326, Final residual = 0.000661083, No Iterations 2
time step continuity errors : sum local = 0.000128119, global = 1.34911e-05, cumulative = -0.000499996
smoothSolver:  Solving for nuTilda, Initial residual = 0.0020186, Final residual = 5.95115e-05, No Iterations 3
ExecutionTime = 128.413 s  ClockTime = 129 s

forceCoeffs forces write:
    Cm    = 0.00280145
    Cd    = 0.0167168
    Cl    = 0.00931319
    Cl(f) = 0.00745805
    Cl(r) = 0.00185514

Time = 89s

smoothSolver:  Solving for Ux, Initial residual = 0.00143999, Final residual = 0.000142386, No Iterations 2
smoothSolver:  Solving for Uy, Initial residual = 0.00374474, Final residual = 0.000104682, No Iterations 3
smoothSolver:  Solving for Uz, Initial residual = 0.00459763, Final residual = 0.00045821, No Iterations 2
GAMG:  Solving for p, Initial residual = 0.0139467, Final residual = 0.000645075, No Iterations 2
time step continuity errors : sum local = 0.000125371, global = 1.35162e-05, cumulative = -0.00048648
smoothSolver:  Solving for nuTilda, Initial residual = 0.00199932, Final residual = 5.89337e-05, No Iterations 3
ExecutionTime = 129.757 s  ClockTime = 131 s

forceCoeffs forces write:
    Cm    = 0.00279786
    Cd    = 0.0166825
    Cl    = 0.00930544
    Cl(f) = 0.00745059
    Cl(r) = 0.00185486

Time = 90s

smoothSolver:  Solving for Ux, Initial residual = 0.00142091, Final residual = 0.000140331, No Iterations 2
smoothSolver:  Solving for Uy, Initial residual = 0.00369929, Final residual = 0.000369855, No Iterations 2
smoothSolver:  Solving for Uz, Initial residual = 0.00455735, Final residual = 0.000453223, No Iterations 2
GAMG:  Solving for p, Initial residual = 0.0137634, Final residual = 0.000637506, No Iterations 2
time step continuity errors : sum local = 0.000124227, global = 1.33959e-05, cumulative = -0.000473084
smoothSolver:  Solving for nuTilda, Initial residual = 0.00197999, Final residual = 5.83619e-05, No Iterations 3
ExecutionTime = 131.023 s  ClockTime = 132 s

forceCoeffs forces write:
    Cm    = 0.00279049
    Cd    = 0.0166469
    Cl    = 0.00929637
    Cl(f) = 0.00743868
    Cl(r) = 0.00185769

Time = 91s

smoothSolver:  Solving for Ux, Initial residual = 0.0014002, Final residual = 0.000138175, No Iterations 2
smoothSolver:  Solving for Uy, Initial residual = 0.00367945, Final residual = 0.000366813, No Iterations 2
smoothSolver:  Solving for Uz, Initial residual = 0.00451606, Final residual = 0.000448568, No Iterations 2
GAMG:  Solving for p, Initial residual = 0.0135665, Final residual = 0.000625291, No Iterations 2
time step continuity errors : sum local = 0.000122156, global = 1.32112e-05, cumulative = -0.000459873
smoothSolver:  Solving for nuTilda, Initial residual = 0.00196086, Final residual = 5.77933e-05, No Iterations 3
ExecutionTime = 132.254 s  ClockTime = 133 s

forceCoeffs forces write:
    Cm    = 0.0027795
    Cd    = 0.0166143
    Cl    = 0.00928911
    Cl(f) = 0.00742406
    Cl(r) = 0.00186505

Time = 92s

smoothSolver:  Solving for Ux, Initial residual = 0.0013797, Final residual = 0.000136055, No Iterations 2
smoothSolver:  Solving for Uy, Initial residual = 0.00366701, Final residual = 0.000364583, No Iterations 2
smoothSolver:  Solving for Uz, Initial residual = 0.00446746, Final residual = 0.000443664, No Iterations 2
GAMG:  Solving for p, Initial residual = 0.0133681, Final residual = 0.000608792, No Iterations 2
time step continuity errors : sum local = 0.000119223, global = 1.32169e-05, cumulative = -0.000446656
smoothSolver:  Solving for nuTilda, Initial residual = 0.00194179, Final residual = 5.72257e-05, No Iterations 3
ExecutionTime = 133.559 s  ClockTime = 134 s

forceCoeffs forces write:
    Cm    = 0.00276631
    Cd    = 0.0165872
    Cl    = 0.00928743
    Cl(f) = 0.00741002
    Cl(r) = 0.00187741

Time = 93s

smoothSolver:  Solving for Ux, Initial residual = 0.00136009, Final residual = 0.000134097, No Iterations 2
smoothSolver:  Solving for Uy, Initial residual = 0.0036491, Final residual = 0.000361916, No Iterations 2
smoothSolver:  Solving for Uz, Initial residual = 0.0044146, Final residual = 0.000438221, No Iterations 2
GAMG:  Solving for p, Initial residual = 0.0132896, Final residual = 0.000594291, No Iterations 2
time step continuity errors : sum local = 0.000116647, global = 1.40833e-05, cumulative = -0.000432573
smoothSolver:  Solving for nuTilda, Initial residual = 0.00192278, Final residual = 5.66628e-05, No Iterations 3
ExecutionTime = 134.817 s  ClockTime = 136 s

forceCoeffs forces write:
    Cm    = 0.00275291
    Cd    = 0.016566
    Cl    = 0.00929455
    Cl(f) = 0.00740018
    Cl(r) = 0.00189437

Time = 94s

smoothSolver:  Solving for Ux, Initial residual = 0.00134357, Final residual = 0.000132305, No Iterations 2
smoothSolver:  Solving for Uy, Initial residual = 0.00361963, Final residual = 0.000358128, No Iterations 2
smoothSolver:  Solving for Uz, Initial residual = 0.00436437, Final residual = 0.000432507, No Iterations 2
GAMG:  Solving for p, Initial residual = 0.0132292, Final residual = 0.00059071, No Iterations 2
time step continuity errors : sum local = 0.000116188, global = 1.49549e-05, cumulative = -0.000417618
smoothSolver:  Solving for nuTilda, Initial residual = 0.00190395, Final residual = 5.61031e-05, No Iterations 3
ExecutionTime = 136.06 s  ClockTime = 137 s

forceCoeffs forces write:
    Cm    = 0.00274114
    Cd    = 0.0165495
    Cl    = 0.00931262
    Cl(f) = 0.00739745
    Cl(r) = 0.00191517

Time = 95s

smoothSolver:  Solving for Ux, Initial residual = 0.0013284, Final residual = 0.000130622, No Iterations 2
smoothSolver:  Solving for Uy, Initial residual = 0.00357874, Final residual = 0.000352988, No Iterations 2
smoothSolver:  Solving for Uz, Initial residual = 0.00431406, Final residual = 0.000426973, No Iterations 2
GAMG:  Solving for p, Initial residual = 0.0131678, Final residual = 0.000588512, No Iterations 2
time step continuity errors : sum local = 0.000115981, global = 1.5791e-05, cumulative = -0.000401827
smoothSolver:  Solving for nuTilda, Initial residual = 0.00188522, Final residual = 5.5542e-05, No Iterations 3
ExecutionTime = 137.327 s  ClockTime = 138 s

forceCoeffs forces write:
    Cm    = 0.0027324
    Cd    = 0.016536
    Cl    = 0.00934226
    Cl(f) = 0.00740353
    Cl(r) = 0.00193873

Time = 96s

smoothSolver:  Solving for Ux, Initial residual = 0.00131339, Final residual = 0.000128967, No Iterations 2
smoothSolver:  Solving for Uy, Initial residual = 0.00352966, Final residual = 0.000347086, No Iterations 2
smoothSolver:  Solving for Uz, Initial residual = 0.00426567, Final residual = 0.000421724, No Iterations 2
GAMG:  Solving for p, Initial residual = 0.0130748, Final residual = 0.000577429, No Iterations 2
time step continuity errors : sum local = 0.000114017, global = 1.6707e-05, cumulative = -0.00038512
smoothSolver:  Solving for nuTilda, Initial residual = 0.00186641, Final residual = 5.49817e-05, No Iterations 3
ExecutionTime = 138.549 s  ClockTime = 139 s

forceCoeffs forces write:
    Cm    = 0.00272727
    Cd    = 0.0165242
    Cl    = 0.00938247
    Cl(f) = 0.0074185
    Cl(r) = 0.00196396

Time = 97s

smoothSolver:  Solving for Ux, Initial residual = 0.00129849, Final residual = 0.000127272, No Iterations 2
smoothSolver:  Solving for Uy, Initial residual = 0.00347959, Final residual = 0.00034119, No Iterations 2
smoothSolver:  Solving for Uz, Initial residual = 0.00422209, Final residual = 0.000416726, No Iterations 2
GAMG:  Solving for p, Initial residual = 0.0129523, Final residual = 0.000557872, No Iterations 2
time step continuity errors : sum local = 0.000110361, global = 1.73604e-05, cumulative = -0.000367759
smoothSolver:  Solving for nuTilda, Initial residual = 0.00184758, Final residual = 5.44257e-05, No Iterations 3
[...]
GAMG:  Solving for p, Initial residual = 0.000118328, Final residual = 3.38923e-06, No Iterations 2
time step continuity errors : sum local = 7.62681e-07, global = 2.54822e-08, cumulative = 0.000548606
smoothSolver:  Solving for nuTilda, Initial residual = 3.60092e-07, Final residual = 3.35614e-08, No Iterations 2
ExecutionTime = 683.19 s  ClockTime = 685 s

forceCoeffs forces write:
    Cm    = 0.00256636
    Cd    = 0.0159668
    Cl    = 0.0101785
    Cl(f) = 0.00765562
    Cl(r) = 0.0025229

Time = 481s

smoothSolver:  Solving for Ux, Initial residual = 3.78139e-06, Final residual = 3.54051e-07, No Iterations 2
smoothSolver:  Solving for Uy, Initial residual = 1.70592e-05, Final residual = 1.67295e-06, No Iterations 2
smoothSolver:  Solving for Uz, Initial residual = 1.16019e-05, Final residual = 3.33248e-07, No Iterations 3
GAMG:  Solving for p, Initial residual = 0.00011712, Final residual = 3.28721e-06, No Iterations 2
time step continuity errors : sum local = 7.39715e-07, global = 2.73389e-08, cumulative = 0.000548634
smoothSolver:  Solving for nuTilda, Initial residual = 3.5376e-07, Final residual = 3.29616e-08, No Iterations 2
ExecutionTime = 684.472 s  ClockTime = 686 s

forceCoeffs forces write:
    Cm    = 0.00256665
    Cd    = 0.0159667
    Cl    = 0.0101798
    Cl(f) = 0.00765654
    Cl(r) = 0.00252324

Time = 482s

smoothSolver:  Solving for Ux, Initial residual = 3.73847e-06, Final residual = 3.49984e-07, No Iterations 2
smoothSolver:  Solving for Uy, Initial residual = 1.68143e-05, Final residual = 1.64471e-06, No Iterations 2
smoothSolver:  Solving for Uz, Initial residual = 1.14183e-05, Final residual = 3.27666e-07, No Iterations 3
GAMG:  Solving for p, Initial residual = 0.000116216, Final residual = 3.18864e-06, No Iterations 2
time step continuity errors : sum local = 7.17526e-07, global = 2.82596e-08, cumulative = 0.000548662
smoothSolver:  Solving for nuTilda, Initial residual = 3.48685e-07, Final residual = 3.23689e-08, No Iterations 2
ExecutionTime = 685.738 s  ClockTime = 687 s

forceCoeffs forces write:
    Cm    = 0.00256699
    Cd    = 0.0159667
    Cl    = 0.0101811
    Cl(f) = 0.00765755
    Cl(r) = 0.00252357

Time = 483s

smoothSolver:  Solving for Ux, Initial residual = 3.6949e-06, Final residual = 3.45652e-07, No Iterations 2
smoothSolver:  Solving for Uy, Initial residual = 1.65556e-05, Final residual = 1.61565e-06, No Iterations 2
smoothSolver:  Solving for Uz, Initial residual = 1.12245e-05, Final residual = 3.21686e-07, No Iterations 3
GAMG:  Solving for p, Initial residual = 0.000114947, Final residual = 3.10077e-06, No Iterations 2
time step continuity errors : sum local = 6.97747e-07, global = 2.83215e-08, cumulative = 0.00054869
smoothSolver:  Solving for nuTilda, Initial residual = 3.42316e-07, Final residual = 3.17849e-08, No Iterations 2
ExecutionTime = 687.017 s  ClockTime = 689 s

forceCoeffs forces write:
    Cm    = 0.00256738
    Cd    = 0.0159666
    Cl    = 0.0101825
    Cl(f) = 0.00765863
    Cl(r) = 0.00252388

Time = 484s

smoothSolver:  Solving for Ux, Initial residual = 3.6476e-06, Final residual = 3.41034e-07, No Iterations 2
smoothSolver:  Solving for Uy, Initial residual = 1.62976e-05, Final residual = 1.58574e-06, No Iterations 2
smoothSolver:  Solving for Uz, Initial residual = 1.10128e-05, Final residual = 3.15193e-07, No Iterations 3
GAMG:  Solving for p, Initial residual = 0.000113797, Final residual = 3.01806e-06, No Iterations 2
time step continuity errors : sum local = 6.79127e-07, global = 2.72972e-08, cumulative = 0.000548718
smoothSolver:  Solving for nuTilda, Initial residual = 3.37048e-07, Final residual = 3.1208e-08, No Iterations 2
ExecutionTime = 688.353 s  ClockTime = 690 s

forceCoeffs forces write:
    Cm    = 0.0025678
    Cd    = 0.0159666
    Cl    = 0.0101839
    Cl(f) = 0.00765976
    Cl(r) = 0.00252416

Time = 485s

smoothSolver:  Solving for Ux, Initial residual = 3.59892e-06, Final residual = 3.36059e-07, No Iterations 2
smoothSolver:  Solving for Uy, Initial residual = 1.60424e-05, Final residual = 1.55524e-06, No Iterations 2
smoothSolver:  Solving for Uz, Initial residual = 1.07827e-05, Final residual = 3.08217e-07, No Iterations 3
GAMG:  Solving for p, Initial residual = 0.000112492, Final residual = 2.94427e-06, No Iterations 2
time step continuity errors : sum local = 6.62517e-07, global = 2.57211e-08, cumulative = 0.000548743
smoothSolver:  Solving for nuTilda, Initial residual = 3.30582e-07, Final residual = 3.06406e-08, No Iterations 2
ExecutionTime = 689.606 s  ClockTime = 691 s

forceCoeffs forces write:
    Cm    = 0.00256824
    Cd    = 0.0159665
    Cl    = 0.0101853
    Cl(f) = 0.00766089
    Cl(r) = 0.0025244

Time = 486s

smoothSolver:  Solving for Ux, Initial residual = 3.5489e-06, Final residual = 3.3091e-07, No Iterations 2
smoothSolver:  Solving for Uy, Initial residual = 1.57859e-05, Final residual = 1.52568e-06, No Iterations 2
smoothSolver:  Solving for Uz, Initial residual = 1.05421e-05, Final residual = 3.00778e-07, No Iterations 3
GAMG:  Solving for p, Initial residual = 0.000111077, Final residual = 2.89029e-06, No Iterations 2
time step continuity errors : sum local = 6.50365e-07, global = 2.36045e-08, cumulative = 0.000548767
smoothSolver:  Solving for nuTilda, Initial residual = 3.25382e-07, Final residual = 3.00794e-08, No Iterations 2
ExecutionTime = 690.992 s  ClockTime = 693 s

forceCoeffs forces write:
    Cm    = 0.00256869
    Cd    = 0.0159664
    Cl    = 0.0101866
    Cl(f) = 0.00766199
    Cl(r) = 0.00252461

Time = 487s

smoothSolver:  Solving for Ux, Initial residual = 3.50084e-06, Final residual = 3.25924e-07, No Iterations 2
smoothSolver:  Solving for Uy, Initial residual = 1.55317e-05, Final residual = 1.49623e-06, No Iterations 2
smoothSolver:  Solving for Uz, Initial residual = 1.0293e-05, Final residual = 2.93051e-07, No Iterations 3
GAMG:  Solving for p, Initial residual = 0.000109488, Final residual = 2.86072e-06, No Iterations 2
time step continuity errors : sum local = 6.43702e-07, global = 2.11584e-08, cumulative = 0.000548788
smoothSolver:  Solving for nuTilda, Initial residual = 3.1899e-07, Final residual = 2.9525e-08, No Iterations 2
ExecutionTime = 692.322 s  ClockTime = 694 s

forceCoeffs forces write:
    Cm    = 0.00256913
    Cd    = 0.0159663
    Cl    = 0.0101878
    Cl(f) = 0.00766303
    Cl(r) = 0.00252477

Time = 488s

smoothSolver:  Solving for Ux, Initial residual = 3.45157e-06, Final residual = 3.20723e-07, No Iterations 2
smoothSolver:  Solving for Uy, Initial residual = 1.52743e-05, Final residual = 1.4676e-06, No Iterations 2
smoothSolver:  Solving for Uz, Initial residual = 1.00385e-05, Final residual = 1.00282e-06, No Iterations 2
GAMG:  Solving for p, Initial residual = 0.000107841, Final residual = 2.80689e-06, No Iterations 2
time step continuity errors : sum local = 6.31585e-07, global = 1.87183e-08, cumulative = 0.000548807
smoothSolver:  Solving for nuTilda, Initial residual = 3.13567e-07, Final residual = 2.89588e-08, No Iterations 2
ExecutionTime = 693.703 s  ClockTime = 695 s

forceCoeffs forces write:
    Cm    = 0.00256955
    Cd    = 0.0159662
    Cl    = 0.0101889
    Cl(f) = 0.007664
    Cl(r) = 0.00252489

Time = 489s

smoothSolver:  Solving for Ux, Initial residual = 3.40181e-06, Final residual = 3.15862e-07, No Iterations 2
smoothSolver:  Solving for Uy, Initial residual = 1.50054e-05, Final residual = 1.43911e-06, No Iterations 2
smoothSolver:  Solving for Uz, Initial residual = 9.83243e-06, Final residual = 9.79283e-07, No Iterations 2
GAMG:  Solving for p, Initial residual = 0.000106243, Final residual = 2.80318e-06, No Iterations 2
time step continuity errors : sum local = 6.30744e-07, global = 1.61953e-08, cumulative = 0.000548823
smoothSolver:  Solving for nuTilda, Initial residual = 3.07046e-07, Final residual = 2.84017e-08, No Iterations 2
ExecutionTime = 694.986 s  ClockTime = 697 s

forceCoeffs forces write:
    Cm    = 0.00256994
    Cd    = 0.0159661
    Cl    = 0.0101898
    Cl(f) = 0.00766485
    Cl(r) = 0.00252497

Time = 490s

smoothSolver:  Solving for Ux, Initial residual = 3.35121e-06, Final residual = 3.11232e-07, No Iterations 2
smoothSolver:  Solving for Uy, Initial residual = 1.47428e-05, Final residual = 1.41241e-06, No Iterations 2
smoothSolver:  Solving for Uz, Initial residual = 9.62946e-06, Final residual = 9.56563e-07, No Iterations 2
GAMG:  Solving for p, Initial residual = 0.000104644, Final residual = 2.83393e-06, No Iterations 2
time step continuity errors : sum local = 6.37658e-07, global = 1.36801e-08, cumulative = 0.000548837
smoothSolver:  Solving for nuTilda, Initial residual = 3.01964e-07, Final residual = 2.78479e-08, No Iterations 2
ExecutionTime = 696.251 s  ClockTime = 698 s

forceCoeffs forces write:
    Cm    = 0.00257028
    Cd    = 0.015966
    Cl    = 0.0101906
    Cl(f) = 0.00766557
    Cl(r) = 0.00252502

Time = 491s

smoothSolver:  Solving for Ux, Initial residual = 3.30285e-06, Final residual = 3.06634e-07, No Iterations 2
smoothSolver:  Solving for Uy, Initial residual = 1.44863e-05, Final residual = 1.3876e-06, No Iterations 2
smoothSolver:  Solving for Uz, Initial residual = 9.41616e-06, Final residual = 9.3289e-07, No Iterations 2
GAMG:  Solving for p, Initial residual = 0.000103257, Final residual = 2.88469e-06, No Iterations 2
time step continuity errors : sum local = 6.49075e-07, global = 1.12224e-08, cumulative = 0.000548848
smoothSolver:  Solving for nuTilda, Initial residual = 2.95738e-07, Final residual = 2.73067e-08, No Iterations 2
ExecutionTime = 697.538 s  ClockTime = 699 s

forceCoeffs forces write:
    Cm    = 0.00257056
    Cd    = 0.0159659
    Cl    = 0.0101912
    Cl(f) = 0.00766615
    Cl(r) = 0.00252503

Time = 492s

smoothSolver:  Solving for Ux, Initial residual = 3.25166e-06, Final residual = 3.01762e-07, No Iterations 2
smoothSolver:  Solving for Uy, Initial residual = 1.42412e-05, Final residual = 1.36546e-06, No Iterations 2
smoothSolver:  Solving for Uz, Initial residual = 9.19055e-06, Final residual = 9.08598e-07, No Iterations 2
GAMG:  Solving for p, Initial residual = 0.000102712, Final residual = 2.94855e-06, No Iterations 2
time step continuity errors : sum local = 6.63438e-07, global = 8.84145e-09, cumulative = 0.000548857
smoothSolver:  Solving for nuTilda, Initial residual = 2.90619e-07, Final residual = 2.67703e-08, No Iterations 2
ExecutionTime = 698.89 s  ClockTime = 700 s

forceCoeffs forces write:
    Cm    = 0.00257078
    Cd    = 0.0159658
    Cl    = 0.0101916
    Cl(f) = 0.00766656
    Cl(r) = 0.002525

Time = 493s

smoothSolver:  Solving for Ux, Initial residual = 3.20289e-06, Final residual = 2.97291e-07, No Iterations 2
smoothSolver:  Solving for Uy, Initial residual = 1.40095e-05, Final residual = 1.3446e-06, No Iterations 2
smoothSolver:  Solving for Uz, Initial residual = 8.94863e-06, Final residual = 8.82149e-07, No Iterations 2
GAMG:  Solving for p, Initial residual = 0.000102568, Final residual = 2.99861e-06, No Iterations 2
time step continuity errors : sum local = 6.74697e-07, global = 6.44697e-09, cumulative = 0.000548863
smoothSolver:  Solving for nuTilda, Initial residual = 2.84479e-07, Final residual = 2.62538e-08, No Iterations 2
ExecutionTime = 700.176 s  ClockTime = 702 s

forceCoeffs forces write:
    Cm    = 0.00257093
    Cd    = 0.0159657
    Cl    = 0.0101918
    Cl(f) = 0.00766681
    Cl(r) = 0.00252495

Time = 494s

smoothSolver:  Solving for Ux, Initial residual = 3.15278e-06, Final residual = 2.92681e-07, No Iterations 2
smoothSolver:  Solving for Uy, Initial residual = 1.37781e-05, Final residual = 1.32418e-06, No Iterations 2
smoothSolver:  Solving for Uz, Initial residual = 8.7017e-06, Final residual = 8.54842e-07, No Iterations 2
GAMG:  Solving for p, Initial residual = 0.000102002, Final residual = 3.02281e-06, No Iterations 2
time step continuity errors : sum local = 6.8014e-07, global = 4.18029e-09, cumulative = 0.000548867
smoothSolver:  Solving for nuTilda, Initial residual = 2.79738e-07, Final residual = 2.57508e-08, No Iterations 2
ExecutionTime = 701.676 s  ClockTime = 703 s

forceCoeffs forces write:
    Cm    = 0.00257101
    Cd    = 0.0159656
    Cl    = 0.0101918
    Cl(f) = 0.0076669
    Cl(r) = 0.00252487

Time = 495s

smoothSolver:  Solving for Ux, Initial residual = 3.10483e-06, Final residual = 2.88552e-07, No Iterations 2
smoothSolver:  Solving for Uy, Initial residual = 1.35526e-05, Final residual = 1.3037e-06, No Iterations 2
smoothSolver:  Solving for Uz, Initial residual = 8.46235e-06, Final residual = 8.27372e-07, No Iterations 2
GAMG:  Solving for p, Initial residual = 0.00010116, Final residual = 3.01005e-06, No Iterations 2
time step continuity errors : sum local = 6.77264e-07, global = 2.60484e-09, cumulative = 0.00054887
smoothSolver:  Solving for nuTilda, Initial residual = 2.73933e-07, Final residual = 2.52725e-08, No Iterations 2
ExecutionTime = 703.027 s  ClockTime = 705 s

forceCoeffs forces write:
    Cm    = 0.00257103
    Cd    = 0.0159654
    Cl    = 0.0101916
    Cl(f) = 0.00766684
    Cl(r) = 0.00252478

Time = 496s

smoothSolver:  Solving for Ux, Initial residual = 3.05512e-06, Final residual = 2.84089e-07, No Iterations 2
smoothSolver:  Solving for Uy, Initial residual = 1.33234e-05, Final residual = 1.28187e-06, No Iterations 2
smoothSolver:  Solving for Uz, Initial residual = 8.23219e-06, Final residual = 8.00651e-07, No Iterations 2
GAMG:  Solving for p, Initial residual = 9.94344e-05, Final residual = 2.96455e-06, No Iterations 2
time step continuity errors : sum local = 6.67024e-07, global = 1.42428e-09, cumulative = 0.000548871
smoothSolver:  Solving for nuTilda, Initial residual = 2.69311e-07, Final residual = 2.48061e-08, No Iterations 2
ExecutionTime = 704.329 s  ClockTime = 706 s

forceCoeffs forces write:
    Cm    = 0.00257099
    Cd    = 0.0159653
    Cl    = 0.0101913
    Cl(f) = 0.00766666
    Cl(r) = 0.00252467

Time = 497s

smoothSolver:  Solving for Ux, Initial residual = 3.00697e-06, Final residual = 2.79636e-07, No Iterations 2
smoothSolver:  Solving for Uy, Initial residual = 1.30956e-05, Final residual = 1.25914e-06, No Iterations 2
smoothSolver:  Solving for Uz, Initial residual = 8.01326e-06, Final residual = 7.759e-07, No Iterations 2
GAMG:  Solving for p, Initial residual = 9.70946e-05, Final residual = 2.90569e-06, No Iterations 2
time step continuity errors : sum local = 6.5378e-07, global = -9.27373e-10, cumulative = 0.00054887
smoothSolver:  Solving for nuTilda, Initial residual = 2.63841e-07, Final residual = 2.43576e-08, No Iterations 2
ExecutionTime = 705.629 s  ClockTime = 707 s

forceCoeffs forces write:
    Cm    = 0.0025709
    Cd    = 0.0159652
    Cl    = 0.0101909
    Cl(f) = 0.00766635
    Cl(r) = 0.00252456

Time = 498s

smoothSolver:  Solving for Ux, Initial residual = 2.95829e-06, Final residual = 2.74941e-07, No Iterations 2
smoothSolver:  Solving for Uy, Initial residual = 1.28637e-05, Final residual = 1.23748e-06, No Iterations 2
smoothSolver:  Solving for Uz, Initial residual = 7.81279e-06, Final residual = 7.53723e-07, No Iterations 2
GAMG:  Solving for p, Initial residual = 9.46916e-05, Final residual = 2.84531e-06, No Iterations 2
time step continuity errors : sum local = 6.40191e-07, global = -3.6943e-09, cumulative = 0.000548867
smoothSolver:  Solving for nuTilda, Initial residual = 2.59852e-07, Final residual = 2.39168e-08, No Iterations 2
ExecutionTime = 706.949 s  ClockTime = 709 s

forceCoeffs forces write:
    Cm    = 0.00257075
    Cd    = 0.0159652
    Cl    = 0.0101904
    Cl(f) = 0.00766594
    Cl(r) = 0.00252445

Time = 499s

smoothSolver:  Solving for Ux, Initial residual = 2.91196e-06, Final residual = 2.70436e-07, No Iterations 2
smoothSolver:  Solving for Uy, Initial residual = 1.26433e-05, Final residual = 1.21636e-06, No Iterations 2
smoothSolver:  Solving for Uz, Initial residual = 7.63636e-06, Final residual = 7.34333e-07, No Iterations 2
GAMG:  Solving for p, Initial residual = 9.22462e-05, Final residual = 2.79358e-06, No Iterations 2
time step continuity errors : sum local = 6.28552e-07, global = -7.19525e-09, cumulative = 0.00054886
smoothSolver:  Solving for nuTilda, Initial residual = 2.54725e-07, Final residual = 2.34846e-08, No Iterations 2
ExecutionTime = 708.318 s  ClockTime = 710 s

forceCoeffs forces write:
    Cm    = 0.00257055
    Cd    = 0.0159651
    Cl    = 0.0101898
    Cl(f) = 0.00766546
    Cl(r) = 0.00252436

Time = 500s

smoothSolver:  Solving for Ux, Initial residual = 2.8645e-06, Final residual = 2.65856e-07, No Iterations 2
smoothSolver:  Solving for Uy, Initial residual = 1.24293e-05, Final residual = 1.19541e-06, No Iterations 2
smoothSolver:  Solving for Uz, Initial residual = 7.47831e-06, Final residual = 7.17103e-07, No Iterations 2
GAMG:  Solving for p, Initial residual = 8.94348e-05, Final residual = 2.74155e-06, No Iterations 2
time step continuity errors : sum local = 6.16844e-07, global = -1.15152e-08, cumulative = 0.000548848
smoothSolver:  Solving for nuTilda, Initial residual = 2.50882e-07, Final residual = 2.3063e-08, No Iterations 2
ExecutionTime = 709.673 s  ClockTime = 711 s

forceCoeffs forces write:
    Cm    = 0.00257032
    Cd    = 0.015965
    Cl    = 0.0101892
    Cl(f) = 0.00766493
    Cl(r) = 0.00252428

Time = 501s

smoothSolver:  Solving for Ux, Initial residual = 2.81914e-06, Final residual = 2.61246e-07, No Iterations 2
smoothSolver:  Solving for Uy, Initial residual = 1.22291e-05, Final residual = 1.17562e-06, No Iterations 2
smoothSolver:  Solving for Uz, Initial residual = 7.34419e-06, Final residual = 7.02446e-07, No Iterations 2
GAMG:  Solving for p, Initial residual = 8.71204e-05, Final residual = 2.70729e-06, No Iterations 2
time step continuity errors : sum local = 6.09135e-07, global = -1.66466e-08, cumulative = 0.000548831
smoothSolver:  Solving for nuTilda, Initial residual = 2.46175e-07, Final residual = 2.26648e-08, No Iterations 2
ExecutionTime = 711.022 s  ClockTime = 713 s

forceCoeffs forces write:
    Cm    = 0.00257007
    Cd    = 0.015965
    Cl    = 0.0101886
    Cl(f) = 0.00766438
    Cl(r) = 0.00252423

Time = 502s

smoothSolver:  Solving for Ux, Initial residual = 2.77465e-06, Final residual = 2.56898e-07, No Iterations 2
smoothSolver:  Solving for Uy, Initial residual = 1.2043e-05, Final residual = 1.15686e-06, No Iterations 2
smoothSolver:  Solving for Uz, Initial residual = 7.23702e-06, Final residual = 6.90609e-07, No Iterations 2
GAMG:  Solving for p, Initial residual = 8.48998e-05, Final residual = 2.69179e-06, No Iterations 2
time step continuity errors : sum local = 6.05646e-07, global = -2.0921e-08, cumulative = 0.00054881
smoothSolver:  Solving for nuTilda, Initial residual = 2.42904e-07, Final residual = 2.22809e-08, No Iterations 2
ExecutionTime = 712.334 s  ClockTime = 714 s

forceCoeffs forces write:
    Cm    = 0.00256981
    Cd    = 0.0159649
    Cl    = 0.0101881
    Cl(f) = 0.00766383
    Cl(r) = 0.00252422

Time = 503s

smoothSolver:  Solving for Ux, Initial residual = 2.73409e-06, Final residual = 2.53256e-07, No Iterations 2
smoothSolver:  Solving for Uy, Initial residual = 1.18687e-05, Final residual = 1.14021e-06, No Iterations 2
smoothSolver:  Solving for Uz, Initial residual = 7.15048e-06, Final residual = 6.81499e-07, No Iterations 2
GAMG:  Solving for p, Initial residual = 8.3058e-05, Final residual = 2.69368e-06, No Iterations 2
time step continuity errors : sum local = 6.06072e-07, global = -2.55317e-08, cumulative = 0.000548785
smoothSolver:  Solving for nuTilda, Initial residual = 2.38707e-07, Final residual = 2.19099e-08, No Iterations 2
ExecutionTime = 713.807 s  ClockTime = 715 s

streamlines streamlines write:
    Seeded 20 particles
    Sampled 8517 locations
forceCoeffs forces write:
    Cm    = 0.00256955
    Cd    = 0.0159649
    Cl    = 0.0101876
    Cl(f) = 0.00766333
    Cl(r) = 0.00252424

End

