/*---------------------------------------------------------------------------*\
  =========                 |
  \\      /  F ield         | OpenFOAM: The Open Source CFD Toolbox
   \\    /   O peration     | Website:  https://openfoam.org
    \\  /    A nd           | Version:  12
     \\/     M anipulation  |
\*---------------------------------------------------------------------------*/
Build  : 12-8b1612fe08a0
Exec   : foamRun
Date   : Sep 10 2024
Time   : 14:53:57
Host   : "DESKTOP-HK6CJNO"
PID    : 220152
I/O    : uncollated
Case   : /home/weizhe/OpenFOAM/weizhe-12/run/ahmed/results/1e-05_100
nProcs : 1
sigFpe : Enabling floating point exception trapping (FOAM_SIGFPE).
fileModificationChecking : Monitoring run-time modified files using timeStampMaster (fileModificationSkew 10)
allowSystemOperations : Allowing user-supplied system call operations

// * * * * * * * * * * * * * * * * * * * * * * * * * * * * * * * * * * * * * //
Create time

Create mesh for time = 3

Selecting solver incompressibleFluid
Selecting viscosity model constant
Selecting turbulence model type RAS
Selecting RAS turbulence model SpalartAllmaras
RAS
{
    model           SpalartAllmaras;
    turbulence      on;
    printCoeffs     on;
    sigmaNut        0.66666;
    kappa           0.41;
    Cb1             0.1355;
    Cb2             0.622;
    Cw2             0.3;
    Cw3             2;
    Cv1             7.1;
    Cs              0.3;
}

No MRF models present


SIMPLE: No convergence criteria found


SIMPLE: Operating solver in steady-state mode with 1 outer corrector
SIMPLE: Operating solver in SIMPLE mode



Starting time loop

Reading surface description:
    yNormal

streamlines streamlines:
    automatic track length specified through number of sub cycles : 5

forcesBase forces:
    Not including porosity effects
forces forces:
    Not including porosity effects
forceCoeffs forces:
    Not including porosity effects
streamlines streamlines write:
    Seeded 20 particles
    Sampled 6040 locations
forceCoeffs forces write:
    Cm    = 0.00927347
    Cd    = 0.0564307
    Cl    = 0.000373805
    Cl(f) = 0.00946037
    Cl(r) = -0.00908657

Time = 4s

smoothSolver:  Solving for Ux, Initial residual = 1, Final residual = 0.0339708, No Iterations 4
smoothSolver:  Solving for Uy, Initial residual = 1, Final residual = 0.0627505, No Iterations 3
smoothSolver:  Solving for Uz, Initial residual = 1, Final residual = 0.0860633, No Iterations 3
GAMG:  Solving for p, Initial residual = 1, Final residual = 0.0665935, No Iterations 5
time step continuity errors : sum local = 0.0603158, global = -0.0201207, cumulative = -0.0201207
Selecting patchDistMethod meshWave
smoothSolver:  Solving for nuTilda, Initial residual = 1, Final residual = 0.0488408, No Iterations 1
ExecutionTime = 7.5314 s  ClockTime = 8 s

forceCoeffs forces write:
    Cm    = 15.2481
    Cd    = 64.3283
    Cl    = 13.764
    Cl(f) = 22.1301
    Cl(r) = -8.36611

Time = 5s

smoothSolver:  Solving for Ux, Initial residual = 0.406528, Final residual = 0.0383487, No Iterations 2
smoothSolver:  Solving for Uy, Initial residual = 0.473444, Final residual = 0.0141394, No Iterations 3
smoothSolver:  Solving for Uz, Initial residual = 0.459978, Final residual = 0.0459057, No Iterations 2
GAMG:  Solving for p, Initial residual = 0.679617, Final residual = 0.0584898, No Iterations 2
time step continuity errors : sum local = 0.228138, global = -0.00304632, cumulative = -0.023167
smoothSolver:  Solving for nuTilda, Initial residual = 0.157586, Final residual = 0.0142457, No Iterations 1
ExecutionTime = 8.7633 s  ClockTime = 9 s

forceCoeffs forces write:
    Cm    = 16.1294
    Cd    = 67.6412
    Cl    = 17.373
    Cl(f) = 24.8159
    Cl(r) = -7.44291

Time = 6s

smoothSolver:  Solving for Ux, Initial residual = 0.177385, Final residual = 0.0167241, No Iterations 2
smoothSolver:  Solving for Uy, Initial residual = 0.260228, Final residual = 0.00782826, No Iterations 3
smoothSolver:  Solving for Uz, Initial residual = 0.258845, Final residual = 0.00736964, No Iterations 3
GAMG:  Solving for p, Initial residual = 0.653854, Final residual = 0.0395121, No Iterations 3
time step continuity errors : sum local = 0.228317, global = 0.0109298, cumulative = -0.0122373
smoothSolver:  Solving for nuTilda, Initial residual = 0.0598861, Final residual = 0.00182815, No Iterations 2
ExecutionTime = 10.1447 s  ClockTime = 11 s

forceCoeffs forces write:
    Cm    = 8.99494
    Cd    = 36.881
    Cl    = 10.8609
    Cl(f) = 14.4254
    Cl(r) = -3.56448

Time = 7s

smoothSolver:  Solving for Ux, Initial residual = 0.0739933, Final residual = 0.00690297, No Iterations 2
smoothSolver:  Solving for Uy, Initial residual = 0.118859, Final residual = 0.0035764, No Iterations 3
smoothSolver:  Solving for Uz, Initial residual = 0.121618, Final residual = 0.0120966, No Iterations 2
GAMG:  Solving for p, Initial residual = 0.471636, Final residual = 0.0408102, No Iterations 3
time step continuity errors : sum local = 0.267456, global = 0.0126054, cumulative = 0.000368086
smoothSolver:  Solving for nuTilda, Initial residual = 0.0300313, Final residual = 0.00138508, No Iterations 2
ExecutionTime = 11.437 s  ClockTime = 12 s

forceCoeffs forces write:
    Cm    = -0.84566
    Cd    = -3.29568
    Cl    = 0.376541
    Cl(f) = -0.657389
    Cl(r) = 1.03393

Time = 8s

smoothSolver:  Solving for Ux, Initial residual = 0.0185361, Final residual = 0.0014806, No Iterations 2
smoothSolver:  Solving for Uy, Initial residual = 0.027524, Final residual = 0.00239133, No Iterations 2
smoothSolver:  Solving for Uz, Initial residual = 0.0322497, Final residual = 0.00268854, No Iterations 2
GAMG:  Solving for p, Initial residual = 0.348941, Final residual = 0.0274909, No Iterations 3
time step continuity errors : sum local = 0.181392, global = 0.0116401, cumulative = 0.0120081
smoothSolver:  Solving for nuTilda, Initial residual = 0.019455, Final residual = 0.00115483, No Iterations 2
ExecutionTime = 12.9526 s  ClockTime = 14 s

forceCoeffs forces write:
    Cm    = -7.42492
    Cd    = -29.443
    Cl    = -7.02709
    Cl(f) = -10.9385
    Cl(r) = 3.91138

Time = 9s

smoothSolver:  Solving for Ux, Initial residual = 0.0608419, Final residual = 0.00581606, No Iterations 2
smoothSolver:  Solving for Uy, Initial residual = 0.112111, Final residual = 0.00327689, No Iterations 3
smoothSolver:  Solving for Uz, Initial residual = 0.097352, Final residual = 0.00960937, No Iterations 2
GAMG:  Solving for p, Initial residual = 0.328438, Final residual = 0.0257054, No Iterations 2
time step continuity errors : sum local = 0.168193, global = 0.00469196, cumulative = 0.0167001
smoothSolver:  Solving for nuTilda, Initial residual = 0.0148078, Final residual = 0.00101661, No Iterations 2
ExecutionTime = 14.3109 s  ClockTime = 15 s

forceCoeffs forces write:
    Cm    = -7.71204
    Cd    = -30.0861
    Cl    = -8.13945
    Cl(f) = -11.7818
    Cl(r) = 3.64232

Time = 10s

smoothSolver:  Solving for Ux, Initial residual = 0.0810065, Final residual = 0.00770698, No Iterations 2
smoothSolver:  Solving for Uy, Initial residual = 0.143606, Final residual = 0.00425193, No Iterations 3
smoothSolver:  Solving for Uz, Initial residual = 0.118295, Final residual = 0.0117068, No Iterations 2
GAMG:  Solving for p, Initial residual = 0.390372, Final residual = 0.0218669, No Iterations 3
time step continuity errors : sum local = 0.129754, global = -0.00261904, cumulative = 0.0140811
smoothSolver:  Solving for nuTilda, Initial residual = 0.012272, Final residual = 0.000912249, No Iterations 2
ExecutionTime = 15.6302 s  ClockTime = 16 s

forceCoeffs forces write:
    Cm    = -4.03558
    Cd    = -14.7582
    Cl    = -4.37463
    Cl(f) = -6.22289
    Cl(r) = 1.84826

Time = 11s

smoothSolver:  Solving for Ux, Initial residual = 0.0665327, Final residual = 0.00598226, No Iterations 2
smoothSolver:  Solving for Uy, Initial residual = 0.0979582, Final residual = 0.009793, No Iterations 2
smoothSolver:  Solving for Uz, Initial residual = 0.088509, Final residual = 0.00838125, No Iterations 2
GAMG:  Solving for p, Initial residual = 0.433212, Final residual = 0.0325291, No Iterations 3
time step continuity errors : sum local = 0.155194, global = -0.00394818, cumulative = 0.0101329
smoothSolver:  Solving for nuTilda, Initial residual = 0.0105126, Final residual = 0.000814939, No Iterations 2
ExecutionTime = 16.9124 s  ClockTime = 18 s

forceCoeffs forces write:
    Cm    = 0.921627
    Cd    = 4.51148
    Cl    = 1.15091
    Cl(f) = 1.49708
    Cl(r) = -0.346173

Time = 12s

smoothSolver:  Solving for Ux, Initial residual = 0.0280389, Final residual = 0.00211211, No Iterations 2
smoothSolver:  Solving for Uy, Initial residual = 0.047463, Final residual = 0.00437595, No Iterations 2
smoothSolver:  Solving for Uz, Initial residual = 0.0458961, Final residual = 0.00383281, No Iterations 2
GAMG:  Solving for p, Initial residual = 0.510966, Final residual = 0.0314157, No Iterations 3
time step continuity errors : sum local = 0.105715, global = -0.011286, cumulative = -0.00115309
smoothSolver:  Solving for nuTilda, Initial residual = 0.00925504, Final residual = 0.000738324, No Iterations 2
ExecutionTime = 18.1919 s  ClockTime = 19 s

forceCoeffs forces write:
    Cm    = 4.20987
    Cd    = 16.4061
    Cl    = 5.12501
    Cl(f) = 6.77237
    Cl(r) = -1.64736

Time = 13s

smoothSolver:  Solving for Ux, Initial residual = 0.0460252, Final residual = 0.00446829, No Iterations 2
smoothSolver:  Solving for Uy, Initial residual = 0.0822711, Final residual = 0.00237944, No Iterations 3
smoothSolver:  Solving for Uz, Initial residual = 0.0726877, Final residual = 0.00705605, No Iterations 2
GAMG:  Solving for p, Initial residual = 0.601994, Final residual = 0.0525447, No Iterations 2
time step continuity errors : sum local = 0.133459, global = -0.00454326, cumulative = -0.00569635
smoothSolver:  Solving for nuTilda, Initial residual = 0.00832946, Final residual = 0.00067948, No Iterations 2
ExecutionTime = 19.5596 s  ClockTime = 20 s

forceCoeffs forces write:
    Cm    = 4.39073
    Cd    = 16.4202
    Cl    = 5.87961
    Cl(f) = 7.33054
    Cl(r) = -1.45093

Time = 14s

smoothSolver:  Solving for Ux, Initial residual = 0.0437066, Final residual = 0.00419738, No Iterations 2
smoothSolver:  Solving for Uy, Initial residual = 0.0714066, Final residual = 0.00211491, No Iterations 3
smoothSolver:  Solving for Uz, Initial residual = 0.0683726, Final residual = 0.00680374, No Iterations 2
GAMG:  Solving for p, Initial residual = 0.600328, Final residual = 0.0282281, No Iterations 3
time step continuity errors : sum local = 0.07017, global = -0.000875707, cumulative = -0.00657206
smoothSolver:  Solving for nuTilda, Initial residual = 0.00756382, Final residual = 0.00062984, No Iterations 2
ExecutionTime = 20.8587 s  ClockTime = 22 s

forceCoeffs forces write:
    Cm    = 2.67601
    Cd    = 9.49947
    Cl    = 4.13618
    Cl(f) = 4.7441
    Cl(r) = -0.607927

Time = 15s

smoothSolver:  Solving for Ux, Initial residual = 0.0299174, Final residual = 0.00264269, No Iterations 2
smoothSolver:  Solving for Uy, Initial residual = 0.0414213, Final residual = 0.00121505, No Iterations 3
smoothSolver:  Solving for Uz, Initial residual = 0.0481266, Final residual = 0.00469883, No Iterations 2
GAMG:  Solving for p, Initial residual = 0.456326, Final residual = 0.030691, No Iterations 3
time step continuity errors : sum local = 0.08717, global = -0.00559539, cumulative = -0.0121674
smoothSolver:  Solving for nuTilda, Initial residual = 0.00695933, Final residual = 0.000590787, No Iterations 2
ExecutionTime = 22.2363 s  ClockTime = 23 s

forceCoeffs forces write:
    Cm    = 0.216534
    Cd    = 0.858956
    Cl    = 1.31496
    Cl(f) = 0.874015
    Cl(r) = 0.440947

Time = 16s

smoothSolver:  Solving for Ux, Initial residual = 0.0171634, Final residual = 0.00135405, No Iterations 2
smoothSolver:  Solving for Uy, Initial residual = 0.0250178, Final residual = 0.00233814, No Iterations 2
smoothSolver:  Solving for Uz, Initial residual = 0.0276505, Final residual = 0.00245845, No Iterations 2
GAMG:  Solving for p, Initial residual = 0.326346, Final residual = 0.0187614, No Iterations 3
time step continuity errors : sum local = 0.0634331, global = 0.00701384, cumulative = -0.0051536
smoothSolver:  Solving for nuTilda, Initial residual = 0.00649005, Final residual = 0.000561529, No Iterations 2
ExecutionTime = 23.5377 s  ClockTime = 24 s

forceCoeffs forces write:
    Cm    = -1.50224
    Cd    = -4.57147
    Cl    = -0.743433
    Cl(f) = -1.87395
    Cl(r) = 1.13052

Time = 17s

smoothSolver:  Solving for Ux, Initial residual = 0.0199052, Final residual = 0.0018886, No Iterations 2
smoothSolver:  Solving for Uy, Initial residual = 0.0366838, Final residual = 0.00355231, No Iterations 2
smoothSolver:  Solving for Uz, Initial residual = 0.031621, Final residual = 0.00287823, No Iterations 2
GAMG:  Solving for p, Initial residual = 0.26439, Final residual = 0.0259543, No Iterations 2
time step continuity errors : sum local = 0.0967758, global = 0.001738, cumulative = -0.0034156
smoothSolver:  Solving for nuTilda, Initial residual = 0.00614341, Final residual = 0.000539739, No Iterations 2
ExecutionTime = 24.7959 s  ClockTime = 26 s

forceCoeffs forces write:
    Cm    = -1.72271
    Cd    = -4.83337
    Cl    = -1.15321
    Cl(f) = -2.29931
    Cl(r) = 1.1461

Time = 18s

smoothSolver:  Solving for Ux, Initial residual = 0.0203168, Final residual = 0.00193179, No Iterations 2
smoothSolver:  Solving for Uy, Initial residual = 0.036703, Final residual = 0.00357698, No Iterations 2
smoothSolver:  Solving for Uz, Initial residual = 0.0318345, Final residual = 0.00293159, No Iterations 2
GAMG:  Solving for p, Initial residual = 0.247058, Final residual = 0.0122079, No Iterations 3
time step continuity errors : sum local = 0.0448207, global = 0.00471722, cumulative = 0.00130162
smoothSolver:  Solving for nuTilda, Initial residual = 0.00587165, Final residual = 0.000520724, No Iterations 2
ExecutionTime = 26.4342 s  ClockTime = 27 s

forceCoeffs forces write:
    Cm    = -1.03735
    Cd    = -2.171
    Cl    = -0.145846
    Cl(f) = -1.11028
    Cl(r) = 0.964431

Time = 19s

smoothSolver:  Solving for Ux, Initial residual = 0.0173309, Final residual = 0.00150224, No Iterations 2
smoothSolver:  Solving for Uy, Initial residual = 0.026245, Final residual = 0.00245463, No Iterations 2
smoothSolver:  Solving for Uz, Initial residual = 0.0265911, Final residual = 0.00236049, No Iterations 2
GAMG:  Solving for p, Initial residual = 0.245159, Final residual = 0.0132987, No Iterations 3
time step continuity errors : sum local = 0.0441381, global = 0.00419828, cumulative = 0.00549989
smoothSolver:  Solving for nuTilda, Initial residual = 0.00560961, Final residual = 0.000501307, No Iterations 2
ExecutionTime = 27.9007 s  ClockTime = 29 s

forceCoeffs forces write:
    Cm    = 0.136678
    Cd    = 1.39502
    Cl    = 1.60372
    Cl(f) = 0.938537
    Cl(r) = 0.665182

Time = 20s

smoothSolver:  Solving for Ux, Initial residual = 0.0134005, Final residual = 0.00103183, No Iterations 2
smoothSolver:  Solving for Uy, Initial residual = 0.0231488, Final residual = 0.00213375, No Iterations 2
smoothSolver:  Solving for Uz, Initial residual = 0.024125, Final residual = 0.00203462, No Iterations 2
GAMG:  Solving for p, Initial residual = 0.257485, Final residual = 0.0129154, No Iterations 3
time step continuity errors : sum local = 0.0362382, global = -0.00125639, cumulative = 0.0042435
smoothSolver:  Solving for nuTilda, Initial residual = 0.00535248, Final residual = 0.000482458, No Iterations 2
ExecutionTime = 29.2063 s  ClockTime = 30 s

forceCoeffs forces write:
    Cm    = 1.09477
    Cd    = 3.8338
    Cl    = 3.06089
    Cl(f) = 2.62521
    Cl(r) = 0.435676

Time = 21s

smoothSolver:  Solving for Ux, Initial residual = 0.0118434, Final residual = 0.000979499, No Iterations 2
smoothSolver:  Solving for Uy, Initial residual = 0.0275166, Final residual = 0.0026892, No Iterations 2
smoothSolver:  Solving for Uz, Initial residual = 0.0269862, Final residual = 0.00244089, No Iterations 2
GAMG:  Solving for p, Initial residual = 0.271974, Final residual = 0.0259633, No Iterations 2
time step continuity errors : sum local = 0.0628209, global = -0.000469646, cumulative = 0.00377385
smoothSolver:  Solving for nuTilda, Initial residual = 0.00511403, Final residual = 0.000464361, No Iterations 2
ExecutionTime = 30.4349 s  ClockTime = 31 s

forceCoeffs forces write:
    Cm    = 1.33114
    Cd    = 4.1366
    Cl    = 3.52094
    Cl(f) = 3.09161
    Cl(r) = 0.429336

Time = 22s

smoothSolver:  Solving for Ux, Initial residual = 0.0112831, Final residual = 0.000985841, No Iterations 2
smoothSolver:  Solving for Uy, Initial residual = 0.0249109, Final residual = 0.00246424, No Iterations 2
smoothSolver:  Solving for Uz, Initial residual = 0.0260384, Final residual = 0.0024442, No Iterations 2
GAMG:  Solving for p, Initial residual = 0.252898, Final residual = 0.0126256, No Iterations 3
time step continuity errors : sum local = 0.0286281, global = -0.00454543, cumulative = -0.000771581
smoothSolver:  Solving for nuTilda, Initial residual = 0.00491413, Final residual = 0.000450003, No Iterations 2
ExecutionTime = 31.7501 s  ClockTime = 32 s

forceCoeffs forces write:
    Cm    = 1.14276
    Cd    = 3.30159
    Cl    = 3.22621
    Cl(f) = 2.75586
    Cl(r) = 0.470349

Time = 23s

smoothSolver:  Solving for Ux, Initial residual = 0.0101685, Final residual = 0.000899625, No Iterations 2
smoothSolver:  Solving for Uy, Initial residual = 0.0185172, Final residual = 0.0018071, No Iterations 2
smoothSolver:  Solving for Uz, Initial residual = 0.0218465, Final residual = 0.00209315, No Iterations 2
GAMG:  Solving for p, Initial residual = 0.222373, Final residual = 0.0108231, No Iterations 3
time step continuity errors : sum local = 0.024337, global = -0.00381258, cumulative = -0.00458416
smoothSolver:  Solving for nuTilda, Initial residual = 0.00475092, Final residual = 0.00043794, No Iterations 2
ExecutionTime = 33.1668 s  ClockTime = 34 s

forceCoeffs forces write:
    Cm    = 0.624902
    Cd    = 1.97499
    Cl    = 2.3802
    Cl(f) = 1.815
    Cl(r) = 0.565198

Time = 24s

smoothSolver:  Solving for Ux, Initial residual = 0.00955924, Final residual = 0.000803923, No Iterations 2
smoothSolver:  Solving for Uy, Initial residual = 0.0159216, Final residual = 0.00154279, No Iterations 2
smoothSolver:  Solving for Uz, Initial residual = 0.0178878, Final residual = 0.00168576, No Iterations 2
GAMG:  Solving for p, Initial residual = 0.190039, Final residual = 0.00862909, No Iterations 3
time step continuity errors : sum local = 0.0204747, global = -0.00108316, cumulative = -0.00566732
smoothSolver:  Solving for nuTilda, Initial residual = 0.00460888, Final residual = 0.000427413, No Iterations 2
ExecutionTime = 34.5035 s  ClockTime = 35 s

forceCoeffs forces write:
    Cm    = 0.100717
    Cd    = 0.931021
    Cl    = 1.53081
    Cl(f) = 0.866121
    Cl(r) = 0.664687

Time = 25s

smoothSolver:  Solving for Ux, Initial residual = 0.00914096, Final residual = 0.000820715, No Iterations 2
smoothSolver:  Solving for Uy, Initial residual = 0.0158072, Final residual = 0.00152284, No Iterations 2
smoothSolver:  Solving for Uz, Initial residual = 0.0156017, Final residual = 0.00145203, No Iterations 2
GAMG:  Solving for p, Initial residual = 0.167346, Final residual = 0.0154462, No Iterations 2
time step continuity errors : sum local = 0.0389632, global = 0.000529344, cumulative = -0.00513798
smoothSolver:  Solving for nuTilda, Initial residual = 0.00447689, Final residual = 0.000418272, No Iterations 2
ExecutionTime = 35.7194 s  ClockTime = 36 s

forceCoeffs forces write:
    Cm    = -0.0935855
    Cd    = 0.685466
    Cl    = 1.20493
    Cl(f) = 0.508878
    Cl(r) = 0.696049

Time = 26s

smoothSolver:  Solving for Ux, Initial residual = 0.00831498, Final residual = 0.000772658, No Iterations 2
smoothSolver:  Solving for Uy, Initial residual = 0.0145714, Final residual = 0.00138894, No Iterations 2
smoothSolver:  Solving for Uz, Initial residual = 0.0141648, Final residual = 0.0013051, No Iterations 2
GAMG:  Solving for p, Initial residual = 0.14383, Final residual = 0.00717013, No Iterations 3
time step continuity errors : sum local = 0.0183058, global = 0.00329224, cumulative = -0.00184574
smoothSolver:  Solving for nuTilda, Initial residual = 0.00435774, Final residual = 0.000409698, No Iterations 2
ExecutionTime = 36.9689 s  ClockTime = 38 s

forceCoeffs forces write:
    Cm    = -0.112825
    Cd    = 0.807664
    Cl    = 1.25314
    Cl(f) = 0.513746
    Cl(r) = 0.739396

Time = 27s

smoothSolver:  Solving for Ux, Initial residual = 0.00743749, Final residual = 0.000689998, No Iterations 2
smoothSolver:  Solving for Uy, Initial residual = 0.0133344, Final residual = 0.00126541, No Iterations 2
smoothSolver:  Solving for Uz, Initial residual = 0.0135222, Final residual = 0.00123941, No Iterations 2
GAMG:  Solving for p, Initial residual = 0.119031, Final residual = 0.00567667, No Iterations 3
time step continuity errors : sum local = 0.014302, global = 0.00304815, cumulative = 0.00120241
smoothSolver:  Solving for nuTilda, Initial residual = 0.00425143, Final residual = 0.000401397, No Iterations 2
ExecutionTime = 38.2801 s  ClockTime = 39 s

forceCoeffs forces write:
    Cm    = 0.0791119
    Cd    = 1.18751
    Cl    = 1.65728
    Cl(f) = 0.907752
    Cl(r) = 0.749528

Time = 28s

smoothSolver:  Solving for Ux, Initial residual = 0.00726655, Final residual = 0.000625134, No Iterations 2
smoothSolver:  Solving for Uy, Initial residual = 0.0139987, Final residual = 0.00135483, No Iterations 2
smoothSolver:  Solving for Uz, Initial residual = 0.0145612, Final residual = 0.00135028, No Iterations 2
GAMG:  Solving for p, Initial residual = 0.114012, Final residual = 0.00468211, No Iterations 3
time step continuity errors : sum local = 0.0113534, global = 0.00222293, cumulative = 0.00342534
smoothSolver:  Solving for nuTilda, Initial residual = 0.00415299, Final residual = 0.000393959, No Iterations 2
ExecutionTime = 39.6905 s  ClockTime = 40 s

forceCoeffs forces write:
    Cm    = 0.349438
    Cd    = 1.57215
    Cl    = 2.1524
    Cl(f) = 1.42564
    Cl(r) = 0.726763

Time = 29s

smoothSolver:  Solving for Ux, Initial residual = 0.00658179, Final residual = 0.000546183, No Iterations 2
smoothSolver:  Solving for Uy, Initial residual = 0.0143199, Final residual = 0.00139551, No Iterations 2
smoothSolver:  Solving for Uz, Initial residual = 0.0154615, Final residual = 0.00145166, No Iterations 2
GAMG:  Solving for p, Initial residual = 0.117131, Final residual = 0.0102557, No Iterations 2
time step continuity errors : sum local = 0.0236865, global = -0.000613192, cumulative = 0.00281215
smoothSolver:  Solving for nuTilda, Initial residual = 0.00405897, Final residual = 0.000387138, No Iterations 2
ExecutionTime = 40.9243 s  ClockTime = 42 s

forceCoeffs forces write:
    Cm    = 0.498822
    Cd    = 1.72252
    Cl    = 2.39188
    Cl(f) = 1.69476
    Cl(r) = 0.697117

Time = 30s

smoothSolver:  Solving for Ux, Initial residual = 0.00596033, Final residual = 0.000491568, No Iterations 2
smoothSolver:  Solving for Uy, Initial residual = 0.0129847, Final residual = 0.00125386, No Iterations 2
smoothSolver:  Solving for Uz, Initial residual = 0.0148326, Final residual = 0.00139408, No Iterations 2
GAMG:  Solving for p, Initial residual = 0.108194, Final residual = 0.00482489, No Iterations 3
time step continuity errors : sum local = 0.0109042, global = -0.00229052, cumulative = 0.000521629
smoothSolver:  Solving for nuTilda, Initial residual = 0.00396868, Final residual = 0.000380458, No Iterations 2
ExecutionTime = 42.2091 s  ClockTime = 43 s

forceCoeffs forces write:
    Cm    = 0.578303
    Cd    = 1.79551
    Cl    = 2.41407
    Cl(f) = 1.78534
    Cl(r) = 0.62873

Time = 31s

smoothSolver:  Solving for Ux, Initial residual = 0.00553721, Final residual = 0.000482359, No Iterations 2
smoothSolver:  Solving for Uy, Initial residual = 0.0109034, Final residual = 0.00104146, No Iterations 2
smoothSolver:  Solving for Uz, Initial residual = 0.0132162, Final residual = 0.00124086, No Iterations 2
GAMG:  Solving for p, Initial residual = 0.0892097, Final residual = 0.00395339, No Iterations 3
time step continuity errors : sum local = 0.00872986, global = -0.0022296, cumulative = -0.00170797
smoothSolver:  Solving for nuTilda, Initial residual = 0.00388587, Final residual = 0.000373536, No Iterations 2
ExecutionTime = 43.4843 s  ClockTime = 44 s

forceCoeffs forces write:
    Cm    = 0.522957
    Cd    = 1.72886
    Cl    = 2.18183
    Cl(f) = 1.61387
    Cl(r) = 0.56796

Time = 32s

smoothSolver:  Solving for Ux, Initial residual = 0.00571248, Final residual = 0.000520894, No Iterations 2
smoothSolver:  Solving for Uy, Initial residual = 0.0102689, Final residual = 0.000976693, No Iterations 2
smoothSolver:  Solving for Uz, Initial residual = 0.0120419, Final residual = 0.00112875, No Iterations 2
GAMG:  Solving for p, Initial residual = 0.0803363, Final residual = 0.00735136, No Iterations 2
time step continuity errors : sum local = 0.0161576, global = 0.00140071, cumulative = -0.000307268
smoothSolver:  Solving for nuTilda, Initial residual = 0.00381585, Final residual = 0.000367158, No Iterations 2
ExecutionTime = 44.6931 s  ClockTime = 45 s

forceCoeffs forces write:
    Cm    = 0.421233
    Cd    = 1.6141
    Cl    = 1.90812
    Cl(f) = 1.37529
    Cl(r) = 0.532826

Time = 33s

smoothSolver:  Solving for Ux, Initial residual = 0.00580438, Final residual = 0.000533445, No Iterations 2
smoothSolver:  Solving for Uy, Initial residual = 0.00983321, Final residual = 0.000936177, No Iterations 2
smoothSolver:  Solving for Uz, Initial residual = 0.0111431, Final residual = 0.00104426, No Iterations 2
GAMG:  Solving for p, Initial residual = 0.079332, Final residual = 0.00705932, No Iterations 2
time step continuity errors : sum local = 0.0155373, global = 0.00141084, cumulative = 0.00110357
smoothSolver:  Solving for nuTilda, Initial residual = 0.00375137, Final residual = 0.000361172, No Iterations 2
ExecutionTime = 45.8976 s  ClockTime = 47 s

forceCoeffs forces write:
    Cm    = 0.297205
    Cd    = 1.49905
    Cl    = 1.60996
    Cl(f) = 1.10219
    Cl(r) = 0.507776

Time = 34s

smoothSolver:  Solving for Ux, Initial residual = 0.00559926, Final residual = 0.000525358, No Iterations 2
smoothSolver:  Solving for Uy, Initial residual = 0.00941686, Final residual = 0.000902053, No Iterations 2
smoothSolver:  Solving for Uz, Initial residual = 0.0103521, Final residual = 0.000975337, No Iterations 2
GAMG:  Solving for p, Initial residual = 0.0732452, Final residual = 0.0071566, No Iterations 2
time step continuity errors : sum local = 0.0159726, global = 0.000967923, cumulative = 0.00207149
smoothSolver:  Solving for nuTilda, Initial residual = 0.00369034, Final residual = 0.000355293, No Iterations 2
ExecutionTime = 47.1097 s  ClockTime = 48 s

forceCoeffs forces write:
    Cm    = 0.200899
    Cd    = 1.404
    Cl    = 1.39022
    Cl(f) = 0.896011
    Cl(r) = 0.494213

Time = 35s

smoothSolver:  Solving for Ux, Initial residual = 0.00534087, Final residual = 0.000513951, No Iterations 2
smoothSolver:  Solving for Uy, Initial residual = 0.00947842, Final residual = 0.000920297, No Iterations 2
smoothSolver:  Solving for Uz, Initial residual = 0.0101275, Final residual = 0.000965833, No Iterations 2
GAMG:  Solving for p, Initial residual = 0.0622219, Final residual = 0.00242322, No Iterations 3
time step continuity errors : sum local = 0.00552096, global = 0.000851351, cumulative = 0.00292284
smoothSolver:  Solving for nuTilda, Initial residual = 0.00362831, Final residual = 0.000349283, No Iterations 2
ExecutionTime = 48.368 s  ClockTime = 49 s

forceCoeffs forces write:
    Cm    = 0.161964
    Cd    = 1.33071
    Cl    = 1.30529
    Cl(f) = 0.814608
    Cl(r) = 0.49068

Time = 36s

smoothSolver:  Solving for Ux, Initial residual = 0.00530383, Final residual = 0.000505254, No Iterations 2
smoothSolver:  Solving for Uy, Initial residual = 0.00993515, Final residual = 0.000978759, No Iterations 2
smoothSolver:  Solving for Uz, Initial residual = 0.0105167, Final residual = 0.00102399, No Iterations 2
GAMG:  Solving for p, Initial residual = 0.0550683, Final residual = 0.00442905, No Iterations 2
time step continuity errors : sum local = 0.0102785, global = -0.000116611, cumulative = 0.00280623
smoothSolver:  Solving for nuTilda, Initial residual = 0.00356627, Final residual = 0.000343059, No Iterations 2
ExecutionTime = 49.5729 s  ClockTime = 50 s

forceCoeffs forces write:
    Cm    = 0.190403
    Cd    = 1.33031
    Cl    = 1.34019
    Cl(f) = 0.860496
    Cl(r) = 0.479689

Time = 37s

smoothSolver:  Solving for Ux, Initial residual = 0.00519219, Final residual = 0.000483405, No Iterations 2
smoothSolver:  Solving for Uy, Initial residual = 0.00990628, Final residual = 0.000982621, No Iterations 2
smoothSolver:  Solving for Uz, Initial residual = 0.0107112, Final residual = 0.00104952, No Iterations 2
GAMG:  Solving for p, Initial residual = 0.0537453, Final residual = 0.00452428, No Iterations 2
time step continuity errors : sum local = 0.0105659, global = -0.000401702, cumulative = 0.00240453
smoothSolver:  Solving for nuTilda, Initial residual = 0.00351056, Final residual = 0.000336696, No Iterations 2
ExecutionTime = 50.7829 s  ClockTime = 52 s

forceCoeffs forces write:
    Cm    = 0.25911
    Cd    = 1.36841
    Cl    = 1.43482
    Cl(f) = 0.976521
    Cl(r) = 0.4583

Time = 38s

smoothSolver:  Solving for Ux, Initial residual = 0.00495374, Final residual = 0.000454176, No Iterations 2
smoothSolver:  Solving for Uy, Initial residual = 0.00944467, Final residual = 0.00093894, No Iterations 2
smoothSolver:  Solving for Uz, Initial residual = 0.0106399, Final residual = 0.00104225, No Iterations 2
GAMG:  Solving for p, Initial residual = 0.0525676, Final residual = 0.0048489, No Iterations 2
time step continuity errors : sum local = 0.0112736, global = -0.000357926, cumulative = 0.0020466
smoothSolver:  Solving for nuTilda, Initial residual = 0.0034543, Final residual = 0.000330464, No Iterations 2
ExecutionTime = 51.9827 s  ClockTime = 53 s

forceCoeffs forces write:
    Cm    = 0.333936
    Cd    = 1.43007
    Cl    = 1.51284
    Cl(f) = 1.09036
    Cl(r) = 0.422483

Time = 39s

smoothSolver:  Solving for Ux, Initial residual = 0.00476785, Final residual = 0.000436682, No Iterations 2
smoothSolver:  Solving for Uy, Initial residual = 0.00889772, Final residual = 0.000881083, No Iterations 2
smoothSolver:  Solving for Uz, Initial residual = 0.0103327, Final residual = 0.0010076, No Iterations 2
GAMG:  Solving for p, Initial residual = 0.0493157, Final residual = 0.00470702, No Iterations 2
time step continuity errors : sum local = 0.0107947, global = 0.000353099, cumulative = 0.0023997
smoothSolver:  Solving for nuTilda, Initial residual = 0.00340495, Final residual = 0.000324273, No Iterations 2
ExecutionTime = 53.2342 s  ClockTime = 54 s

forceCoeffs forces write:
    Cm    = 0.375659
    Cd    = 1.48222
    Cl    = 1.50957
    Cl(f) = 1.13045
    Cl(r) = 0.379129

Time = 40s

smoothSolver:  Solving for Ux, Initial residual = 0.00471667, Final residual = 0.000441466, No Iterations 2
smoothSolver:  Solving for Uy, Initial residual = 0.00852236, Final residual = 0.000838037, No Iterations 2
smoothSolver:  Solving for Uz, Initial residual = 0.00988721, Final residual = 0.000961283, No Iterations 2
GAMG:  Solving for p, Initial residual = 0.0471724, Final residual = 0.0037866, No Iterations 2
time step continuity errors : sum local = 0.00853863, global = -1.8772e-07, cumulative = 0.00239951
smoothSolver:  Solving for nuTilda, Initial residual = 0.00336537, Final residual = 0.000318857, No Iterations 2
ExecutionTime = 54.6532 s  ClockTime = 55 s

forceCoeffs forces write:
    Cm    = 0.375752
    Cd    = 1.50346
    Cl    = 1.42938
    Cl(f) = 1.09044
    Cl(r) = 0.338936

Time = 41s

smoothSolver:  Solving for Ux, Initial residual = 0.00475698, Final residual = 0.000452909, No Iterations 2
smoothSolver:  Solving for Uy, Initial residual = 0.0083268, Final residual = 0.000817125, No Iterations 2
smoothSolver:  Solving for Uz, Initial residual = 0.00945022, Final residual = 0.000920824, No Iterations 2
GAMG:  Solving for p, Initial residual = 0.0463942, Final residual = 0.00333239, No Iterations 2
time step continuity errors : sum local = 0.00745402, global = -0.000223772, cumulative = 0.00217574
smoothSolver:  Solving for nuTilda, Initial residual = 0.00332152, Final residual = 0.000313396, No Iterations 2
ExecutionTime = 56.1024 s  ClockTime = 57 s

forceCoeffs forces write:
    Cm    = 0.347836
    Cd    = 1.4964
    Cl    = 1.30223
    Cl(f) = 0.998952
    Cl(r) = 0.303281

Time = 42s

smoothSolver:  Solving for Ux, Initial residual = 0.00474383, Final residual = 0.000455298, No Iterations 2
smoothSolver:  Solving for Uy, Initial residual = 0.00821112, Final residual = 0.000805626, No Iterations 2
smoothSolver:  Solving for Uz, Initial residual = 0.00907465, Final residual = 0.000888394, No Iterations 2
GAMG:  Solving for p, Initial residual = 0.0453654, Final residual = 0.00336742, No Iterations 2
time step continuity errors : sum local = 0.00754684, global = 0.000138761, cumulative = 0.0023145
smoothSolver:  Solving for nuTilda, Initial residual = 0.00327472, Final residual = 0.00030826, No Iterations 2
ExecutionTime = 57.6571 s  ClockTime = 58 s

forceCoeffs forces write:
    Cm    = 0.301493
    Cd    = 1.46563
    Cl    = 1.14286
    Cl(f) = 0.872921
    Cl(r) = 0.269935

Time = 43s

smoothSolver:  Solving for Ux, Initial residual = 0.0046586, Final residual = 0.00044865, No Iterations 2
smoothSolver:  Solving for Uy, Initial residual = 0.00819464, Final residual = 0.000803684, No Iterations 2
smoothSolver:  Solving for Uz, Initial residual = 0.00882117, Final residual = 0.000863115, No Iterations 2
GAMG:  Solving for p, Initial residual = 0.0438032, Final residual = 0.00332585, No Iterations 2
time step continuity errors : sum local = 0.00752412, global = 0.000563334, cumulative = 0.00287784
smoothSolver:  Solving for nuTilda, Initial residual = 0.00323278, Final residual = 0.000303324, No Iterations 2
ExecutionTime = 59.1536 s  ClockTime = 60 s

forceCoeffs forces write:
    Cm    = 0.251478
    Cd    = 1.4195
    Cl    = 0.988159
    Cl(f) = 0.745557
    Cl(r) = 0.242601

Time = 44s

smoothSolver:  Solving for Ux, Initial residual = 0.00454384, Final residual = 0.000437816, No Iterations 2
smoothSolver:  Solving for Uy, Initial residual = 0.00823781, Final residual = 0.000809244, No Iterations 2
smoothSolver:  Solving for Uz, Initial residual = 0.00874288, Final residual = 0.000851225, No Iterations 2
GAMG:  Solving for p, Initial residual = 0.0418234, Final residual = 0.00333188, No Iterations 2
time step continuity errors : sum local = 0.00765324, global = 0.000380685, cumulative = 0.00325852
smoothSolver:  Solving for nuTilda, Initial residual = 0.00319266, Final residual = 0.000298506, No Iterations 2
ExecutionTime = 60.5755 s  ClockTime = 61 s

forceCoeffs forces write:
    Cm    = 0.215555
    Cd    = 1.37349
    Cl    = 0.881662
    Cl(f) = 0.656386
    Cl(r) = 0.225276

Time = 45s

smoothSolver:  Solving for Ux, Initial residual = 0.00445091, Final residual = 0.000427371, No Iterations 2
smoothSolver:  Solving for Uy, Initial residual = 0.00827307, Final residual = 0.00081505, No Iterations 2
smoothSolver:  Solving for Uz, Initial residual = 0.00875539, Final residual = 0.000852123, No Iterations 2
GAMG:  Solving for p, Initial residual = 0.0401405, Final residual = 0.0030116, No Iterations 2
time step continuity errors : sum local = 0.00705066, global = 0.000485992, cumulative = 0.00374451
smoothSolver:  Solving for nuTilda, Initial residual = 0.00315239, Final residual = 0.000293884, No Iterations 2
ExecutionTime = 61.8294 s  ClockTime = 63 s

forceCoeffs forces write:
    Cm    = 0.201316
    Cd    = 1.34136
    Cl    = 0.837027
    Cl(f) = 0.61983
    Cl(r) = 0.217197

Time = 46s

smoothSolver:  Solving for Ux, Initial residual = 0.00439014, Final residual = 0.000417606, No Iterations 2
smoothSolver:  Solving for Uy, Initial residual = 0.00822303, Final residual = 0.000811579, No Iterations 2
smoothSolver:  Solving for Uz, Initial residual = 0.0087676, Final residual = 0.000855331, No Iterations 2
GAMG:  Solving for p, Initial residual = 0.0391652, Final residual = 0.00277925, No Iterations 2
time step continuity errors : sum local = 0.00661301, global = 0.000671846, cumulative = 0.00441636
smoothSolver:  Solving for nuTilda, Initial residual = 0.00311321, Final residual = 0.000289564, No Iterations 2
ExecutionTime = 63.1006 s  ClockTime = 64 s

forceCoeffs forces write:
    Cm    = 0.203468
    Cd    = 1.32577
    Cl    = 0.834097
    Cl(f) = 0.620517
    Cl(r) = 0.21358

Time = 47s

smoothSolver:  Solving for Ux, Initial residual = 0.00433072, Final residual = 0.000408248, No Iterations 2
smoothSolver:  Solving for Uy, Initial residual = 0.00810104, Final residual = 0.000798628, No Iterations 2
smoothSolver:  Solving for Uz, Initial residual = 0.00875643, Final residual = 0.000854133, No Iterations 2
GAMG:  Solving for p, Initial residual = 0.0387638, Final residual = 0.00280223, No Iterations 2
time step continuity errors : sum local = 0.00673944, global = 0.000537984, cumulative = 0.00495434
smoothSolver:  Solving for nuTilda, Initial residual = 0.00307511, Final residual = 0.000285342, No Iterations 2
ExecutionTime = 64.4154 s  ClockTime = 65 s

forceCoeffs forces write:
    Cm    = 0.214962
    Cd    = 1.32345
    Cl    = 0.851244
    Cl(f) = 0.640584
    Cl(r) = 0.21066

Time = 48s

smoothSolver:  Solving for Ux, Initial residual = 0.00426882, Final residual = 0.000399617, No Iterations 2
smoothSolver:  Solving for Uy, Initial residual = 0.00796652, Final residual = 0.000781389, No Iterations 2
smoothSolver:  Solving for Uz, Initial residual = 0.0087471, Final residual = 0.000847645, No Iterations 2
GAMG:  Solving for p, Initial residual = 0.0385131, Final residual = 0.00280746, No Iterations 2
time step continuity errors : sum local = 0.00679338, global = 0.000192069, cumulative = 0.00514641
smoothSolver:  Solving for nuTilda, Initial residual = 0.00303962, Final residual = 0.000280978, No Iterations 2
ExecutionTime = 67.5145 s  ClockTime = 68 s

forceCoeffs forces write:
    Cm    = 0.229646
    Cd    = 1.32961
    Cl    = 0.872636
    Cl(f) = 0.665964
    Cl(r) = 0.206672

Time = 49s

smoothSolver:  Solving for Ux, Initial residual = 0.00420515, Final residual = 0.000391873, No Iterations 2
smoothSolver:  Solving for Uy, Initial residual = 0.00785008, Final residual = 0.000763856, No Iterations 2
smoothSolver:  Solving for Uz, Initial residual = 0.00869269, Final residual = 0.000835113, No Iterations 2
GAMG:  Solving for p, Initial residual = 0.0381203, Final residual = 0.00270756, No Iterations 2
time step continuity errors : sum local = 0.00656918, global = -0.000275834, cumulative = 0.00487058
smoothSolver:  Solving for nuTilda, Initial residual = 0.00300689, Final residual = 0.000276607, No Iterations 2
ExecutionTime = 69.8613 s  ClockTime = 71 s

forceCoeffs forces write:
    Cm    = 0.241617
    Cd    = 1.33809
    Cl    = 0.886293
    Cl(f) = 0.684763
    Cl(r) = 0.20153

Time = 50s

smoothSolver:  Solving for Ux, Initial residual = 0.00413898, Final residual = 0.000386049, No Iterations 2
smoothSolver:  Solving for Uy, Initial residual = 0.00773733, Final residual = 0.000745067, No Iterations 2
smoothSolver:  Solving for Uz, Initial residual = 0.00857447, Final residual = 0.000816146, No Iterations 2
GAMG:  Solving for p, Initial residual = 0.0375278, Final residual = 0.00253257, No Iterations 2
time step continuity errors : sum local = 0.0061479, global = -0.000586234, cumulative = 0.00428434
smoothSolver:  Solving for nuTilda, Initial residual = 0.00297669, Final residual = 0.000273025, No Iterations 2
ExecutionTime = 72.2928 s  ClockTime = 73 s

forceCoeffs forces write:
    Cm    = 0.246801
    Cd    = 1.34332
    Cl    = 0.886167
    Cl(f) = 0.689884
    Cl(r) = 0.196283

Time = 51s

smoothSolver:  Solving for Ux, Initial residual = 0.00406944, Final residual = 0.000381212, No Iterations 2
smoothSolver:  Solving for Uy, Initial residual = 0.0076134, Final residual = 0.000724535, No Iterations 2
smoothSolver:  Solving for Uz, Initial residual = 0.00840629, Final residual = 0.000792744, No Iterations 2
GAMG:  Solving for p, Initial residual = 0.0369455, Final residual = 0.0023366, No Iterations 2
time step continuity errors : sum local = 0.00566642, global = -0.000753904, cumulative = 0.00353044
smoothSolver:  Solving for nuTilda, Initial residual = 0.00292669, Final residual = 0.000269805, No Iterations 2
ExecutionTime = 75.2439 s  ClockTime = 76 s

forceCoeffs forces write:
    Cm    = 0.244167
    Cd    = 1.3424
    Cl    = 0.873063
    Cl(f) = 0.680698
    Cl(r) = 0.192365

Time = 52s

smoothSolver:  Solving for Ux, Initial residual = 0.00399919, Final residual = 0.000376955, No Iterations 2
smoothSolver:  Solving for Uy, Initial residual = 0.00748207, Final residual = 0.000704651, No Iterations 2
smoothSolver:  Solving for Uz, Initial residual = 0.00822561, Final residual = 0.000769124, No Iterations 2
GAMG:  Solving for p, Initial residual = 0.0364709, Final residual = 0.00213476, No Iterations 2
time step continuity errors : sum local = 0.00517173, global = -0.000771731, cumulative = 0.00275871
smoothSolver:  Solving for nuTilda, Initial residual = 0.00290554, Final residual = 0.000267155, No Iterations 2
ExecutionTime = 77.4714 s  ClockTime = 78 s

forceCoeffs forces write:
    Cm    = 0.235194
    Cd    = 1.33532
    Cl    = 0.852135
    Cl(f) = 0.661261
    Cl(r) = 0.190874

Time = 53s

smoothSolver:  Solving for Ux, Initial residual = 0.00393723, Final residual = 0.000372436, No Iterations 2
smoothSolver:  Solving for Uy, Initial residual = 0.00736946, Final residual = 0.000687158, No Iterations 2
smoothSolver:  Solving for Uz, Initial residual = 0.00806069, Final residual = 0.000749279, No Iterations 2
GAMG:  Solving for p, Initial residual = 0.0360987, Final residual = 0.00203683, No Iterations 2
time step continuity errors : sum local = 0.0049363, global = -0.000602077, cumulative = 0.00215663
smoothSolver:  Solving for nuTilda, Initial residual = 0.00285367, Final residual = 0.000263611, No Iterations 2
ExecutionTime = 79.8354 s  ClockTime = 81 s

forceCoeffs forces write:
    Cm    = 0.222311
    Cd    = 1.32394
    Cl    = 0.829375
    Cl(f) = 0.636998
    Cl(r) = 0.192377

Time = 54s

smoothSolver:  Solving for Ux, Initial residual = 0.00386765, Final residual = 0.000365955, No Iterations 2
smoothSolver:  Solving for Uy, Initial residual = 0.00726713, Final residual = 0.000670626, No Iterations 2
smoothSolver:  Solving for Uz, Initial residual = 0.00792129, Final residual = 0.000733291, No Iterations 2
GAMG:  Solving for p, Initial residual = 0.0358313, Final residual = 0.00202972, No Iterations 2
time step continuity errors : sum local = 0.00493077, global = -0.000226473, cumulative = 0.00193016
smoothSolver:  Solving for nuTilda, Initial residual = 0.00281035, Final residual = 0.000260108, No Iterations 2
ExecutionTime = 82.4026 s  ClockTime = 83 s

forceCoeffs forces write:
    Cm    = 0.207861
    Cd    = 1.31079
    Cl    = 0.809776
    Cl(f) = 0.612749
    Cl(r) = 0.197027

Time = 55s

smoothSolver:  Solving for Ux, Initial residual = 0.00380104, Final residual = 0.000358092, No Iterations 2
smoothSolver:  Solving for Uy, Initial residual = 0.00717427, Final residual = 0.000657193, No Iterations 2
smoothSolver:  Solving for Uz, Initial residual = 0.00783923, Final residual = 0.000722579, No Iterations 2
GAMG:  Solving for p, Initial residual = 0.0358162, Final residual = 0.00203326, No Iterations 2
time step continuity errors : sum local = 0.00496293, global = 0.000235388, cumulative = 0.00216555
smoothSolver:  Solving for nuTilda, Initial residual = 0.00276795, Final residual = 0.000256804, No Iterations 2
ExecutionTime = 84.3452 s  ClockTime = 85 s

forceCoeffs forces write:
    Cm    = 0.193934
    Cd    = 1.2982
    Cl    = 0.797341
    Cl(f) = 0.592605
    Cl(r) = 0.204736

Time = 56s

smoothSolver:  Solving for Ux, Initial residual = 0.00372282, Final residual = 0.000349492, No Iterations 2
smoothSolver:  Solving for Uy, Initial residual = 0.0070989, Final residual = 0.000647504, No Iterations 2
smoothSolver:  Solving for Uz, Initial residual = 0.00781121, Final residual = 0.000719966, No Iterations 2
GAMG:  Solving for p, Initial residual = 0.0354908, Final residual = 0.00206058, No Iterations 2
time step continuity errors : sum local = 0.00506531, global = 0.00052525, cumulative = 0.0026908
smoothSolver:  Solving for nuTilda, Initial residual = 0.00273096, Final residual = 0.000253679, No Iterations 2
ExecutionTime = 87.3735 s  ClockTime = 88 s

forceCoeffs forces write:
    Cm    = 0.182337
    Cd    = 1.28776
    Cl    = 0.795221
    Cl(f) = 0.579948
    Cl(r) = 0.215273

Time = 57s

smoothSolver:  Solving for Ux, Initial residual = 0.00363436, Final residual = 0.000341805, No Iterations 2
smoothSolver:  Solving for Uy, Initial residual = 0.00705497, Final residual = 0.000642859, No Iterations 2
smoothSolver:  Solving for Uz, Initial residual = 0.00782612, Final residual = 0.000724512, No Iterations 2
GAMG:  Solving for p, Initial residual = 0.0346706, Final residual = 0.00206215, No Iterations 2
time step continuity errors : sum local = 0.00511649, global = 0.000645807, cumulative = 0.0033366
smoothSolver:  Solving for nuTilda, Initial residual = 0.00269869, Final residual = 0.000250144, No Iterations 2
ExecutionTime = 90.874 s  ClockTime = 92 s

forceCoeffs forces write:
    Cm    = 0.174774
    Cd    = 1.28067
    Cl    = 0.805292
    Cl(f) = 0.577419
    Cl(r) = 0.227872

Time = 58s

smoothSolver:  Solving for Ux, Initial residual = 0.0035792, Final residual = 0.000334779, No Iterations 2
smoothSolver:  Solving for Uy, Initial residual = 0.00702696, Final residual = 0.000641898, No Iterations 2
smoothSolver:  Solving for Uz, Initial residual = 0.00785068, Final residual = 0.00073084, No Iterations 2
GAMG:  Solving for p, Initial residual = 0.0336678, Final residual = 0.00199676, No Iterations 2
time step continuity errors : sum local = 0.00500709, global = 0.00075831, cumulative = 0.00409492
smoothSolver:  Solving for nuTilda, Initial residual = 0.00266237, Final residual = 0.000246778, No Iterations 2
ExecutionTime = 93.0179 s  ClockTime = 94 s

forceCoeffs forces write:
    Cm    = 0.171851
    Cd    = 1.2776
    Cl    = 0.825828
    Cl(f) = 0.584765
    Cl(r) = 0.241063

Time = 59s

smoothSolver:  Solving for Ux, Initial residual = 0.00352189, Final residual = 0.000328057, No Iterations 2
smoothSolver:  Solving for Uy, Initial residual = 0.00699815, Final residual = 0.000641597, No Iterations 2
smoothSolver:  Solving for Uz, Initial residual = 0.00785957, Final residual = 0.000735542, No Iterations 2
GAMG:  Solving for p, Initial residual = 0.0329182, Final residual = 0.00191663, No Iterations 2
time step continuity errors : sum local = 0.00485404, global = 0.00078027, cumulative = 0.00487519
smoothSolver:  Solving for nuTilda, Initial residual = 0.00263028, Final residual = 0.000243056, No Iterations 2
ExecutionTime = 94.6117 s  ClockTime = 95 s

forceCoeffs forces write:
    Cm    = 0.172541
    Cd    = 1.27802
    Cl    = 0.852559
    Cl(f) = 0.598821
    Cl(r) = 0.253739

Time = 60s

smoothSolver:  Solving for Ux, Initial residual = 0.00347257, Final residual = 0.000321958, No Iterations 2
smoothSolver:  Solving for Uy, Initial residual = 0.00694671, Final residual = 0.000638726, No Iterations 2
smoothSolver:  Solving for Uz, Initial residual = 0.00786295, Final residual = 0.000737852, No Iterations 2
GAMG:  Solving for p, Initial residual = 0.0324961, Final residual = 0.00185427, No Iterations 2
time step continuity errors : sum local = 0.00473147, global = 0.000648021, cumulative = 0.00552321
smoothSolver:  Solving for nuTilda, Initial residual = 0.00260006, Final residual = 0.000238968, No Iterations 2
ExecutionTime = 96.0946 s  ClockTime = 97 s

forceCoeffs forces write:
    Cm    = 0.175115
    Cd    = 1.28063
    Cl    = 0.881441
    Cl(f) = 0.615835
    Cl(r) = 0.265606

Time = 61s

smoothSolver:  Solving for Ux, Initial residual = 0.00341792, Final residual = 0.000315914, No Iterations 2
smoothSolver:  Solving for Uy, Initial residual = 0.00685886, Final residual = 0.000633554, No Iterations 2
smoothSolver:  Solving for Uz, Initial residual = 0.00781758, Final residual = 0.000736443, No Iterations 2
GAMG:  Solving for p, Initial residual = 0.0318555, Final residual = 0.00180209, No Iterations 2
time step continuity errors : sum local = 0.00462043, global = 0.000403185, cumulative = 0.00592639
smoothSolver:  Solving for nuTilda, Initial residual = 0.00256555, Final residual = 0.000234956, No Iterations 2
ExecutionTime = 97.6494 s  ClockTime = 99 s

forceCoeffs forces write:
    Cm    = 0.178048
    Cd    = 1.2841
    Cl    = 0.910194
    Cl(f) = 0.633145
    Cl(r) = 0.277049

Time = 62s

smoothSolver:  Solving for Ux, Initial residual = 0.00335972, Final residual = 0.00030961, No Iterations 2
smoothSolver:  Solving for Uy, Initial residual = 0.00675638, Final residual = 0.000626248, No Iterations 2
smoothSolver:  Solving for Uz, Initial residual = 0.00774724, Final residual = 0.000730947, No Iterations 2
GAMG:  Solving for p, Initial residual = 0.0313437, Final residual = 0.00172693, No Iterations 2
time step continuity errors : sum local = 0.00443901, global = 0.000112316, cumulative = 0.00603871
smoothSolver:  Solving for nuTilda, Initial residual = 0.00253164, Final residual = 0.000231556, No Iterations 2
ExecutionTime = 100.169 s  ClockTime = 101 s

forceCoeffs forces write:
    Cm    = 0.180221
    Cd    = 1.28731
    Cl    = 0.937453
    Cl(f) = 0.648947
    Cl(r) = 0.288506

Time = 63s

smoothSolver:  Solving for Ux, Initial residual = 0.00329638, Final residual = 0.000303002, No Iterations 2
smoothSolver:  Solving for Uy, Initial residual = 0.00664038, Final residual = 0.000618212, No Iterations 2
smoothSolver:  Solving for Uz, Initial residual = 0.00763779, Final residual = 0.000721711, No Iterations 2
GAMG:  Solving for p, Initial residual = 0.030916, Final residual = 0.00163273, No Iterations 2
time step continuity errors : sum local = 0.00420038, global = -0.000151203, cumulative = 0.0058875
smoothSolver:  Solving for nuTilda, Initial residual = 0.00249557, Final residual = 0.000228378, No Iterations 2
ExecutionTime = 102.544 s  ClockTime = 103 s

forceCoeffs forces write:
    Cm    = 0.180935
    Cd    = 1.28956
    Cl    = 0.962093
    Cl(f) = 0.661982
    Cl(r) = 0.300111

Time = 64s

smoothSolver:  Solving for Ux, Initial residual = 0.00322901, Final residual = 0.000296211, No Iterations 2
smoothSolver:  Solving for Uy, Initial residual = 0.00652617, Final residual = 0.000609546, No Iterations 2
smoothSolver:  Solving for Uz, Initial residual = 0.00752134, Final residual = 0.000708947, No Iterations 2
GAMG:  Solving for p, Initial residual = 0.0304912, Final residual = 0.00153285, No Iterations 2
time step continuity errors : sum local = 0.00394238, global = -0.00029889, cumulative = 0.00558861
smoothSolver:  Solving for nuTilda, Initial residual = 0.0024631, Final residual = 0.000225253, No Iterations 2
ExecutionTime = 105.303 s  ClockTime = 106 s

forceCoeffs forces write:
    Cm    = 0.179964
    Cd    = 1.29068
    Cl    = 0.983246
    Cl(f) = 0.671587
    Cl(r) = 0.311659

Time = 65s

smoothSolver:  Solving for Ux, Initial residual = 0.00316374, Final residual = 0.000290275, No Iterations 2
smoothSolver:  Solving for Uy, Initial residual = 0.00642876, Final residual = 0.000601397, No Iterations 2
smoothSolver:  Solving for Uz, Initial residual = 0.00739638, Final residual = 0.000695774, No Iterations 2
GAMG:  Solving for p, Initial residual = 0.0301046, Final residual = 0.00142957, No Iterations 2
time step continuity errors : sum local = 0.0036732, global = -0.000343597, cumulative = 0.00524502
smoothSolver:  Solving for nuTilda, Initial residual = 0.00242852, Final residual = 0.000221964, No Iterations 2
ExecutionTime = 107.794 s  ClockTime = 109 s

forceCoeffs forces write:
    Cm    = 0.177548
    Cd    = 1.29094
    Cl    = 1.00072
    Cl(f) = 0.67791
    Cl(r) = 0.322814

Time = 66s

smoothSolver:  Solving for Ux, Initial residual = 0.00310065, Final residual = 0.000285156, No Iterations 2
smoothSolver:  Solving for Uy, Initial residual = 0.00634809, Final residual = 0.00059513, No Iterations 2
smoothSolver:  Solving for Uz, Initial residual = 0.00727716, Final residual = 0.000683061, No Iterations 2
GAMG:  Solving for p, Initial residual = 0.0296436, Final residual = 0.00133622, No Iterations 2
time step continuity errors : sum local = 0.00342986, global = -0.00027003, cumulative = 0.00497499
smoothSolver:  Solving for nuTilda, Initial residual = 0.00239373, Final residual = 0.000218445, No Iterations 2
ExecutionTime = 109.943 s  ClockTime = 111 s

forceCoeffs forces write:
    Cm    = 0.17424
    Cd    = 1.29085
    Cl    = 1.01512
    Cl(f) = 0.681801
    Cl(r) = 0.333322

Time = 67s

smoothSolver:  Solving for Ux, Initial residual = 0.00303743, Final residual = 0.000280122, No Iterations 2
smoothSolver:  Solving for Uy, Initial residual = 0.00628118, Final residual = 0.000588654, No Iterations 2
smoothSolver:  Solving for Uz, Initial residual = 0.0071939, Final residual = 0.000671822, No Iterations 2
GAMG:  Solving for p, Initial residual = 0.0292584, Final residual = 0.00127264, No Iterations 2
time step continuity errors : sum local = 0.00326504, global = -8.08737e-05, cumulative = 0.00489411
smoothSolver:  Solving for nuTilda, Initial residual = 0.00236258, Final residual = 0.000214996, No Iterations 2
ExecutionTime = 112.066 s  ClockTime = 113 s

forceCoeffs forces write:
    Cm    = 0.170653
    Cd    = 1.29092
    Cl    = 1.02746
    Cl(f) = 0.684382
    Cl(r) = 0.343077

Time = 68s

smoothSolver:  Solving for Ux, Initial residual = 0.00297359, Final residual = 0.000274681, No Iterations 2
smoothSolver:  Solving for Uy, Initial residual = 0.0062228, Final residual = 0.000582158, No Iterations 2
smoothSolver:  Solving for Uz, Initial residual = 0.00712633, Final residual = 0.000664253, No Iterations 2
GAMG:  Solving for p, Initial residual = 0.0287292, Final residual = 0.00125647, No Iterations 2
time step continuity errors : sum local = 0.00322472, global = 0.000217115, cumulative = 0.00511123
smoothSolver:  Solving for nuTilda, Initial residual = 0.0023333, Final residual = 0.000211818, No Iterations 2
ExecutionTime = 113.963 s  ClockTime = 115 s

forceCoeffs forces write:
    Cm    = 0.167298
    Cd    = 1.29147
    Cl    = 1.03885
    Cl(f) = 0.686721
    Cl(r) = 0.352125

Time = 69s

smoothSolver:  Solving for Ux, Initial residual = 0.00290688, Final residual = 0.000268815, No Iterations 2
smoothSolver:  Solving for Uy, Initial residual = 0.00616404, Final residual = 0.000574659, No Iterations 2
smoothSolver:  Solving for Uz, Initial residual = 0.00707586, Final residual = 0.000657484, No Iterations 2
GAMG:  Solving for p, Initial residual = 0.0280969, Final residual = 0.00128631, No Iterations 2
time step continuity errors : sum local = 0.00330485, global = 0.000499611, cumulative = 0.00561084
smoothSolver:  Solving for nuTilda, Initial residual = 0.00230401, Final residual = 0.000208746, No Iterations 2
ExecutionTime = 116.631 s  ClockTime = 118 s

forceCoeffs forces write:
    Cm    = 0.164528
    Cd    = 1.29254
    Cl    = 1.05011
    Cl(f) = 0.689585
    Cl(r) = 0.360529

Time = 70s

smoothSolver:  Solving for Ux, Initial residual = 0.0028433, Final residual = 0.000262421, No Iterations 2
smoothSolver:  Solving for Uy, Initial residual = 0.00609875, Final residual = 0.000565619, No Iterations 2
smoothSolver:  Solving for Uz, Initial residual = 0.0070388, Final residual = 0.000649399, No Iterations 2
GAMG:  Solving for p, Initial residual = 0.0274907, Final residual = 0.00134201, No Iterations 2
time step continuity errors : sum local = 0.00345524, global = 0.000705442, cumulative = 0.00631628
smoothSolver:  Solving for nuTilda, Initial residual = 0.00227752, Final residual = 0.000205976, No Iterations 2
ExecutionTime = 119.32 s  ClockTime = 120 s

forceCoeffs forces write:
    Cm    = 0.162572
    Cd    = 1.29406
    Cl    = 1.0617
    Cl(f) = 0.693424
    Cl(r) = 0.36828

Time = 71s

smoothSolver:  Solving for Ux, Initial residual = 0.00277785, Final residual = 0.000255589, No Iterations 2
smoothSolver:  Solving for Uy, Initial residual = 0.00603463, Final residual = 0.000555324, No Iterations 2
smoothSolver:  Solving for Uz, Initial residual = 0.00700879, Final residual = 0.000639826, No Iterations 2
GAMG:  Solving for p, Initial residual = 0.0267212, Final residual = 0.00139133, No Iterations 2
time step continuity errors : sum local = 0.00359342, global = 0.000792795, cumulative = 0.00710908
smoothSolver:  Solving for nuTilda, Initial residual = 0.00225509, Final residual = 0.000203648, No Iterations 2
ExecutionTime = 121.216 s  ClockTime = 122 s

forceCoeffs forces write:
    Cm    = 0.161545
    Cd    = 1.29593
    Cl    = 1.0733
    Cl(f) = 0.698196
    Cl(r) = 0.375107

Time = 72s

smoothSolver:  Solving for Ux, Initial residual = 0.00271405, Final residual = 0.000248641, No Iterations 2
smoothSolver:  Solving for Uy, Initial residual = 0.00596906, Final residual = 0.000544767, No Iterations 2
smoothSolver:  Solving for Uz, Initial residual = 0.00697433, Final residual = 0.000628023, No Iterations 2
GAMG:  Solving for p, Initial residual = 0.0259851, Final residual = 0.00140271, No Iterations 2
time step continuity errors : sum local = 0.00363642, global = 0.000801265, cumulative = 0.00791034
smoothSolver:  Solving for nuTilda, Initial residual = 0.00223119, Final residual = 0.000201314, No Iterations 2
ExecutionTime = 123.301 s  ClockTime = 124 s

forceCoeffs forces write:
    Cm    = 0.161348
    Cd    = 1.29797
    Cl    = 1.08396
    Cl(f) = 0.703326
    Cl(r) = 0.38063

Time = 73s

smoothSolver:  Solving for Ux, Initial residual = 0.00265553, Final residual = 0.000241792, No Iterations 2
smoothSolver:  Solving for Uy, Initial residual = 0.00592104, Final residual = 0.000534706, No Iterations 2
smoothSolver:  Solving for Uz, Initial residual = 0.00693329, Final residual = 0.000616658, No Iterations 2
GAMG:  Solving for p, Initial residual = 0.0251939, Final residual = 0.00136887, No Iterations 2
time step continuity errors : sum local = 0.00356222, global = 0.000770698, cumulative = 0.00868104
smoothSolver:  Solving for nuTilda, Initial residual = 0.00220798, Final residual = 0.000199283, No Iterations 2
ExecutionTime = 125.022 s  ClockTime = 126 s

forceCoeffs forces write:
    Cm    = 0.161659
    Cd    = 1.29996
    Cl    = 1.09273
    Cl(f) = 0.708025
    Cl(r) = 0.384707

Time = 74s

smoothSolver:  Solving for Ux, Initial residual = 0.00259733, Final residual = 0.000235702, No Iterations 2
smoothSolver:  Solving for Uy, Initial residual = 0.00587059, Final residual = 0.000527005, No Iterations 2
smoothSolver:  Solving for Uz, Initial residual = 0.0068749, Final residual = 0.000608386, No Iterations 2
GAMG:  Solving for p, Initial residual = 0.0243013, Final residual = 0.00131418, No Iterations 2
time step continuity errors : sum local = 0.003431, global = 0.000707053, cumulative = 0.00938809
smoothSolver:  Solving for nuTilda, Initial residual = 0.00219001, Final residual = 0.000197719, No Iterations 2
ExecutionTime = 127.176 s  ClockTime = 128 s

forceCoeffs forces write:
    Cm    = 0.162078
    Cd    = 1.30164
    Cl    = 1.09917
    Cl(f) = 0.711666
    Cl(r) = 0.387509

Time = 75s

smoothSolver:  Solving for Ux, Initial residual = 0.0025359, Final residual = 0.000230139, No Iterations 2
smoothSolver:  Solving for Uy, Initial residual = 0.00582087, Final residual = 0.000523141, No Iterations 2
smoothSolver:  Solving for Uz, Initial residual = 0.0068124, Final residual = 0.000603228, No Iterations 2
GAMG:  Solving for p, Initial residual = 0.0235296, Final residual = 0.00127476, No Iterations 2
time step continuity errors : sum local = 0.00333444, global = 0.000613686, cumulative = 0.0100018
smoothSolver:  Solving for nuTilda, Initial residual = 0.00217088, Final residual = 0.000196525, No Iterations 2
ExecutionTime = 129.465 s  ClockTime = 130 s

forceCoeffs forces write:
    Cm    = 0.162284
    Cd    = 1.30282
    Cl    = 1.10327
    Cl(f) = 0.713922
    Cl(r) = 0.389353

Time = 76s

smoothSolver:  Solving for Ux, Initial residual = 0.00247485, Final residual = 0.000224558, No Iterations 2
smoothSolver:  Solving for Uy, Initial residual = 0.00576354, Final residual = 0.000519472, No Iterations 2
smoothSolver:  Solving for Uz, Initial residual = 0.00674405, Final residual = 0.000600365, No Iterations 2
GAMG:  Solving for p, Initial residual = 0.0235022, Final residual = 0.00126893, No Iterations 2
time step continuity errors : sum local = 0.0033215, global = 0.00051926, cumulative = 0.010521
smoothSolver:  Solving for nuTilda, Initial residual = 0.00215462, Final residual = 0.000195498, No Iterations 2
ExecutionTime = 131.454 s  ClockTime = 132 s

forceCoeffs forces write:
    Cm    = 0.162081
    Cd    = 1.30331
    Cl    = 1.10529
    Cl(f) = 0.714727
    Cl(r) = 0.390565

Time = 77s

smoothSolver:  Solving for Ux, Initial residual = 0.00241449, Final residual = 0.00021874, No Iterations 2
smoothSolver:  Solving for Uy, Initial residual = 0.00568081, Final residual = 0.000515037, No Iterations 2
smoothSolver:  Solving for Uz, Initial residual = 0.00666601, Final residual = 0.000598378, No Iterations 2
GAMG:  Solving for p, Initial residual = 0.0240827, Final residual = 0.00128915, No Iterations 2
time step continuity errors : sum local = 0.00337353, global = 0.000444012, cumulative = 0.0109651
smoothSolver:  Solving for nuTilda, Initial residual = 0.00212962, Final residual = 0.000193958, No Iterations 2
ExecutionTime = 133.183 s  ClockTime = 134 s

forceCoeffs forces write:
    Cm    = 0.161401
    Cd    = 1.30302
    Cl    = 1.10556
    Cl(f) = 0.71418
    Cl(r) = 0.391378

Time = 78s

smoothSolver:  Solving for Ux, Initial residual = 0.0023535, Final residual = 0.000212939, No Iterations 2
smoothSolver:  Solving for Uy, Initial residual = 0.00559706, Final residual = 0.000511321, No Iterations 2
smoothSolver:  Solving for Uz, Initial residual = 0.00658632, Final residual = 0.000597213, No Iterations 2
GAMG:  Solving for p, Initial residual = 0.024601, Final residual = 0.00130315, No Iterations 2
time step continuity errors : sum local = 0.00340696, global = 0.000402242, cumulative = 0.0113673
smoothSolver:  Solving for nuTilda, Initial residual = 0.00211068, Final residual = 0.000191946, No Iterations 2
ExecutionTime = 135.852 s  ClockTime = 137 s

forceCoeffs forces write:
    Cm    = 0.160289
    Cd    = 1.30186
    Cl    = 1.10441
    Cl(f) = 0.712496
    Cl(r) = 0.391918

Time = 79s

smoothSolver:  Solving for Ux, Initial residual = 0.00229651, Final residual = 0.000207293, No Iterations 2
smoothSolver:  Solving for Uy, Initial residual = 0.00552063, Final residual = 0.00050617, No Iterations 2
smoothSolver:  Solving for Uz, Initial residual = 0.0065033, Final residual = 0.000596497, No Iterations 2
GAMG:  Solving for p, Initial residual = 0.0249577, Final residual = 0.00128927, No Iterations 2
time step continuity errors : sum local = 0.00336588, global = 0.000394616, cumulative = 0.0117619
smoothSolver:  Solving for nuTilda, Initial residual = 0.00208532, Final residual = 0.000190387, No Iterations 2
ExecutionTime = 137.659 s  ClockTime = 139 s

forceCoeffs forces write:
    Cm    = 0.158886
    Cd    = 1.29986
    Cl    = 1.1022
    Cl(f) = 0.709987
    Cl(r) = 0.392215

Time = 80s

smoothSolver:  Solving for Ux, Initial residual = 0.00224074, Final residual = 0.000202144, No Iterations 2
smoothSolver:  Solving for Uy, Initial residual = 0.00544567, Final residual = 0.000500165, No Iterations 2
smoothSolver:  Solving for Uz, Initial residual = 0.00640162, Final residual = 0.000593651, No Iterations 2
GAMG:  Solving for p, Initial residual = 0.0251984, Final residual = 0.00124608, No Iterations 2
time step continuity errors : sum local = 0.00324654, global = 0.00041448, cumulative = 0.0121764
smoothSolver:  Solving for nuTilda, Initial residual = 0.00205182, Final residual = 0.000188484, No Iterations 2
ExecutionTime = 139.914 s  ClockTime = 141 s

forceCoeffs forces write:
    Cm    = 0.157384
    Cd    = 1.29717
    Cl    = 1.09934
    Cl(f) = 0.707054
    Cl(r) = 0.392285

Time = 81s

smoothSolver:  Solving for Ux, Initial residual = 0.00218361, Final residual = 0.000197598, No Iterations 2
smoothSolver:  Solving for Uy, Initial residual = 0.00536807, Final residual = 0.000493241, No Iterations 2
smoothSolver:  Solving for Uz, Initial residual = 0.00629982, Final residual = 0.000588794, No Iterations 2
GAMG:  Solving for p, Initial residual = 0.0254102, Final residual = 0.0011921, No Iterations 2
time step continuity errors : sum local = 0.00309812, global = 0.000460966, cumulative = 0.0126374
smoothSolver:  Solving for nuTilda, Initial residual = 0.00202178, Final residual = 0.000186242, No Iterations 2
ExecutionTime = 142.146 s  ClockTime = 143 s

forceCoeffs forces write:
    Cm    = 0.155979
    Cd    = 1.29407
    Cl    = 1.0962
    Cl(f) = 0.70408
    Cl(r) = 0.392122

Time = 82s

smoothSolver:  Solving for Ux, Initial residual = 0.00212591, Final residual = 0.000192898, No Iterations 2
smoothSolver:  Solving for Uy, Initial residual = 0.00529177, Final residual = 0.000486206, No Iterations 2
smoothSolver:  Solving for Uz, Initial residual = 0.00617953, Final residual = 0.00058363, No Iterations 2
GAMG:  Solving for p, Initial residual = 0.0255468, Final residual = 0.001143, No Iterations 2
time step continuity errors : sum local = 0.0029629, global = 0.00051223, cumulative = 0.0131496
smoothSolver:  Solving for nuTilda, Initial residual = 0.00199325, Final residual = 0.000183158, No Iterations 2
ExecutionTime = 143.738 s  ClockTime = 145 s

forceCoeffs forces write:
    Cm    = 0.154803
    Cd    = 1.29078
    Cl    = 1.09303
    Cl(f) = 0.701318
    Cl(r) = 0.391712

Time = 83s

smoothSolver:  Solving for Ux, Initial residual = 0.00206817, Final residual = 0.000188066, No Iterations 2
smoothSolver:  Solving for Uy, Initial residual = 0.00520256, Final residual = 0.000479597, No Iterations 2
smoothSolver:  Solving for Uz, Initial residual = 0.00604851, Final residual = 0.000576429, No Iterations 2
GAMG:  Solving for p, Initial residual = 0.0254638, Final residual = 0.00110804, No Iterations 2
time step continuity errors : sum local = 0.00286519, global = 0.000568686, cumulative = 0.0137183
smoothSolver:  Solving for nuTilda, Initial residual = 0.00196667, Final residual = 0.000180573, No Iterations 2
ExecutionTime = 145.362 s  ClockTime = 146 s

forceCoeffs forces write:
    Cm    = 0.153912
    Cd    = 1.28748
    Cl    = 1.08989
    Cl(f) = 0.698859
    Cl(r) = 0.391035

Time = 84s

smoothSolver:  Solving for Ux, Initial residual = 0.00201488, Final residual = 0.000183204, No Iterations 2
smoothSolver:  Solving for Uy, Initial residual = 0.00510791, Final residual = 0.000472315, No Iterations 2
smoothSolver:  Solving for Uz, Initial residual = 0.00589553, Final residual = 0.000568374, No Iterations 2
GAMG:  Solving for p, Initial residual = 0.0251521, Final residual = 0.00107956, No Iterations 2
time step continuity errors : sum local = 0.00278416, global = 0.000612005, cumulative = 0.0143303
smoothSolver:  Solving for nuTilda, Initial residual = 0.00193921, Final residual = 0.000178103, No Iterations 2
ExecutionTime = 146.919 s  ClockTime = 148 s

forceCoeffs forces write:
    Cm    = 0.153291
    Cd    = 1.28425
    Cl    = 1.0867
    Cl(f) = 0.696639
    Cl(r) = 0.390056

Time = 85s

smoothSolver:  Solving for Ux, Initial residual = 0.00196488, Final residual = 0.000178821, No Iterations 2
smoothSolver:  Solving for Uy, Initial residual = 0.00499545, Final residual = 0.000463975, No Iterations 2
smoothSolver:  Solving for Uz, Initial residual = 0.00572356, Final residual = 0.000556867, No Iterations 2
GAMG:  Solving for p, Initial residual = 0.024613, Final residual = 0.00104917, No Iterations 2
time step continuity errors : sum local = 0.00269839, global = 0.000635101, cumulative = 0.0149654
smoothSolver:  Solving for nuTilda, Initial residual = 0.00191097, Final residual = 0.000175604, No Iterations 2
ExecutionTime = 148.427 s  ClockTime = 149 s

forceCoeffs forces write:
    Cm    = 0.152871
    Cd    = 1.28115
    Cl    = 1.08327
    Cl(f) = 0.694508
    Cl(r) = 0.388767

Time = 86s

smoothSolver:  Solving for Ux, Initial residual = 0.00191593, Final residual = 0.000174596, No Iterations 2
smoothSolver:  Solving for Uy, Initial residual = 0.00486776, Final residual = 0.000454416, No Iterations 2
smoothSolver:  Solving for Uz, Initial residual = 0.00553226, Final residual = 0.000540466, No Iterations 2
GAMG:  Solving for p, Initial residual = 0.0240343, Final residual = 0.00101583, No Iterations 2
time step continuity errors : sum local = 0.00260556, global = 0.000636105, cumulative = 0.0156015
smoothSolver:  Solving for nuTilda, Initial residual = 0.0018824, Final residual = 0.000172838, No Iterations 2
ExecutionTime = 150.268 s  ClockTime = 151 s

forceCoeffs forces write:
    Cm    = 0.152558
    Cd    = 1.27826
    Cl    = 1.07949
    Cl(f) = 0.692304
    Cl(r) = 0.387188

Time = 87s

smoothSolver:  Solving for Ux, Initial residual = 0.00186479, Final residual = 0.000170686, No Iterations 2
smoothSolver:  Solving for Uy, Initial residual = 0.00472694, Final residual = 0.000443378, No Iterations 2
smoothSolver:  Solving for Uz, Initial residual = 0.00534593, Final residual = 0.000521352, No Iterations 2
GAMG:  Solving for p, Initial residual = 0.023466, Final residual = 0.000981522, No Iterations 2
time step continuity errors : sum local = 0.00251056, global = 0.000611722, cumulative = 0.0162132
smoothSolver:  Solving for nuTilda, Initial residual = 0.00185172, Final residual = 0.000170134, No Iterations 2
ExecutionTime = 152.824 s  ClockTime = 154 s

forceCoeffs forces write:
    Cm    = 0.152265
    Cd    = 1.27566
    Cl    = 1.07528
    Cl(f) = 0.689903
    Cl(r) = 0.385373

Time = 88s

smoothSolver:  Solving for Ux, Initial residual = 0.00181715, Final residual = 0.000167037, No Iterations 2
smoothSolver:  Solving for Uy, Initial residual = 0.00459069, Final residual = 0.000430614, No Iterations 2
smoothSolver:  Solving for Uz, Initial residual = 0.00515338, Final residual = 0.000500215, No Iterations 2
GAMG:  Solving for p, Initial residual = 0.023021, Final residual = 0.000954167, No Iterations 2
time step continuity errors : sum local = 0.00243301, global = 0.000562422, cumulative = 0.0167756
smoothSolver:  Solving for nuTilda, Initial residual = 0.00182251, Final residual = 0.000167189, No Iterations 2
ExecutionTime = 156.058 s  ClockTime = 157 s

forceCoeffs forces write:
    Cm    = 0.151929
    Cd    = 1.27342
    Cl    = 1.07063
    Cl(f) = 0.687244
    Cl(r) = 0.383387

Time = 89s

smoothSolver:  Solving for Ux, Initial residual = 0.00177319, Final residual = 0.000163576, No Iterations 2
smoothSolver:  Solving for Uy, Initial residual = 0.00445009, Final residual = 0.00041611, No Iterations 2
smoothSolver:  Solving for Uz, Initial residual = 0.00494969, Final residual = 0.000476985, No Iterations 2
GAMG:  Solving for p, Initial residual = 0.0226525, Final residual = 0.000939664, No Iterations 2
time step continuity errors : sum local = 0.00238839, global = 0.000485272, cumulative = 0.0172609
smoothSolver:  Solving for nuTilda, Initial residual = 0.00178967, Final residual = 0.000163758, No Iterations 2
ExecutionTime = 158.325 s  ClockTime = 159 s

forceCoeffs forces write:
    Cm    = 0.15152
    Cd    = 1.27163
    Cl    = 1.06565
    Cl(f) = 0.684345
    Cl(r) = 0.381304

Time = 90s

smoothSolver:  Solving for Ux, Initial residual = 0.00172873, Final residual = 0.00016067, No Iterations 2
smoothSolver:  Solving for Uy, Initial residual = 0.00430382, Final residual = 0.000400878, No Iterations 2
smoothSolver:  Solving for Uz, Initial residual = 0.00473242, Final residual = 0.000453181, No Iterations 2
GAMG:  Solving for p, Initial residual = 0.0224689, Final residual = 0.000943566, No Iterations 2
time step continuity errors : sum local = 0.00239063, global = 0.000386479, cumulative = 0.0176474
smoothSolver:  Solving for nuTilda, Initial residual = 0.00175708, Final residual = 0.000161138, No Iterations 2
ExecutionTime = 160.32 s  ClockTime = 161 s

forceCoeffs forces write:
    Cm    = 0.151032
    Cd    = 1.27034
    Cl    = 1.06045
    Cl(f) = 0.68126
    Cl(r) = 0.379195

Time = 91s

smoothSolver:  Solving for Ux, Initial residual = 0.00168543, Final residual = 0.000157758, No Iterations 2
smoothSolver:  Solving for Uy, Initial residual = 0.00415632, Final residual = 0.000385505, No Iterations 2
smoothSolver:  Solving for Uz, Initial residual = 0.00450593, Final residual = 0.00042936, No Iterations 2
GAMG:  Solving for p, Initial residual = 0.0221755, Final residual = 0.000947194, No Iterations 2
time step continuity errors : sum local = 0.00239307, global = 0.000281133, cumulative = 0.0179285
smoothSolver:  Solving for nuTilda, Initial residual = 0.00172365, Final residual = 0.000158274, No Iterations 2
ExecutionTime = 161.722 s  ClockTime = 163 s

forceCoeffs forces write:
    Cm    = 0.150474
    Cd    = 1.26955
    Cl    = 1.05524
    Cl(f) = 0.678092
    Cl(r) = 0.377144

Time = 92s

smoothSolver:  Solving for Ux, Initial residual = 0.00164342, Final residual = 0.000155259, No Iterations 2
smoothSolver:  Solving for Uy, Initial residual = 0.00400535, Final residual = 0.000370051, No Iterations 2
smoothSolver:  Solving for Uz, Initial residual = 0.00427984, Final residual = 0.000405062, No Iterations 2
GAMG:  Solving for p, Initial residual = 0.0216139, Final residual = 0.000945764, No Iterations 2
time step continuity errors : sum local = 0.00238388, global = 0.000175687, cumulative = 0.0181042
smoothSolver:  Solving for nuTilda, Initial residual = 0.00168168, Final residual = 0.000155274, No Iterations 2
ExecutionTime = 163.092 s  ClockTime = 164 s

forceCoeffs forces write:
    Cm    = 0.149879
    Cd    = 1.26921
    Cl    = 1.05028
    Cl(f) = 0.675017
    Cl(r) = 0.37526

Time = 93s

smoothSolver:  Solving for Ux, Initial residual = 0.00160146, Final residual = 0.000152789, No Iterations 2
smoothSolver:  Solving for Uy, Initial residual = 0.00384603, Final residual = 0.000355357, No Iterations 2
smoothSolver:  Solving for Uz, Initial residual = 0.00405702, Final residual = 0.000383874, No Iterations 2
GAMG:  Solving for p, Initial residual = 0.02077, Final residual = 0.000943281, No Iterations 2
time step continuity errors : sum local = 0.00237285, global = 8.31287e-05, cumulative = 0.0181873
smoothSolver:  Solving for nuTilda, Initial residual = 0.00165615, Final residual = 0.000151986, No Iterations 2
ExecutionTime = 164.542 s  ClockTime = 166 s

forceCoeffs forces write:
    Cm    = 0.149296
    Cd    = 1.26932
    Cl    = 1.04588
    Cl(f) = 0.672234
    Cl(r) = 0.373642

Time = 94s

smoothSolver:  Solving for Ux, Initial residual = 0.00155954, Final residual = 0.000149727, No Iterations 2
smoothSolver:  Solving for Uy, Initial residual = 0.00368528, Final residual = 0.000341692, No Iterations 2
smoothSolver:  Solving for Uz, Initial residual = 0.00385736, Final residual = 0.00036472, No Iterations 2
GAMG:  Solving for p, Initial residual = 0.0197133, Final residual = 0.000930379, No Iterations 2
time step continuity errors : sum local = 0.00233669, global = 1.34834e-05, cumulative = 0.0182008
smoothSolver:  Solving for nuTilda, Initial residual = 0.0016309, Final residual = 0.000149015, No Iterations 2
ExecutionTime = 165.953 s  ClockTime = 167 s

forceCoeffs forces write:
    Cm    = 0.148783
    Cd    = 1.26981
    Cl    = 1.0423
    Cl(f) = 0.669932
    Cl(r) = 0.372365

Time = 95s

smoothSolver:  Solving for Ux, Initial residual = 0.0015164, Final residual = 0.000146554, No Iterations 2
smoothSolver:  Solving for Uy, Initial residual = 0.00353755, Final residual = 0.000328396, No Iterations 2
smoothSolver:  Solving for Uz, Initial residual = 0.00368158, Final residual = 0.000350495, No Iterations 2
GAMG:  Solving for p, Initial residual = 0.01872, Final residual = 0.000907507, No Iterations 2
time step continuity errors : sum local = 0.00227705, global = -4.33669e-05, cumulative = 0.0181574
smoothSolver:  Solving for nuTilda, Initial residual = 0.00159425, Final residual = 0.000146494, No Iterations 2
ExecutionTime = 167.296 s  ClockTime = 168 s

forceCoeffs forces write:
    Cm    = 0.148394
    Cd    = 1.27063
    Cl    = 1.03974
    Cl(f) = 0.668265
    Cl(r) = 0.371478

Time = 96s

smoothSolver:  Solving for Ux, Initial residual = 0.00147774, Final residual = 0.000143528, No Iterations 2
smoothSolver:  Solving for Uy, Initial residual = 0.00338576, Final residual = 0.00031467, No Iterations 2
smoothSolver:  Solving for Uz, Initial residual = 0.00353919, Final residual = 0.000341512, No Iterations 2
GAMG:  Solving for p, Initial residual = 0.0176393, Final residual = 0.000879571, No Iterations 2
time step continuity errors : sum local = 0.00220612, global = -8.11145e-05, cumulative = 0.0180763
smoothSolver:  Solving for nuTilda, Initial residual = 0.0015616, Final residual = 0.000144211, No Iterations 2
ExecutionTime = 168.66 s  ClockTime = 170 s

forceCoeffs forces write:
    Cm    = 0.148165
    Cd    = 1.27169
    Cl    = 1.03828
    Cl(f) = 0.667303
    Cl(r) = 0.370974

Time = 97s

smoothSolver:  Solving for Ux, Initial residual = 0.00143903, Final residual = 0.000140421, No Iterations 2
smoothSolver:  Solving for Uy, Initial residual = 0.0032283, Final residual = 0.000300288, No Iterations 2
smoothSolver:  Solving for Uz, Initial residual = 0.00341567, Final residual = 0.000333983, No Iterations 2
GAMG:  Solving for p, Initial residual = 0.0165526, Final residual = 0.000848855, No Iterations 2
time step continuity errors : sum local = 0.00212966, global = -9.15262e-05, cumulative = 0.0179848
smoothSolver:  Solving for nuTilda, Initial residual = 0.00152791, Final residual = 0.000141941, No Iterations 2
ExecutionTime = 170.047 s  ClockTime = 171 s

forceCoeffs forces write:
    Cm    = 0.148108
    Cd    = 1.27289
    Cl    = 1.03781
    Cl(f) = 0.667011
    Cl(r) = 0.370796

Time = 98s

smoothSolver:  Solving for Ux, Initial residual = 0.00139825, Final residual = 0.00013701, No Iterations 2
smoothSolver:  Solving for Uy, Initial residual = 0.00307857, Final residual = 0.00028688, No Iterations 2
smoothSolver:  Solving for Uz, Initial residual = 0.00331944, Final residual = 0.000328584, No Iterations 2
GAMG:  Solving for p, Initial residual = 0.0155889, Final residual = 0.000816608, No Iterations 2
time step continuity errors : sum local = 0.00205015, global = -9.48725e-05, cumulative = 0.0178899
smoothSolver:  Solving for nuTilda, Initial residual = 0.00149276, Final residual = 0.000139789, No Iterations 2
ExecutionTime = 171.453 s  ClockTime = 172 s

forceCoeffs forces write:
    Cm    = 0.148198
    Cd    = 1.27414
    Cl    = 1.03806
    Cl(f) = 0.667229
    Cl(r) = 0.370834

Time = 99s

smoothSolver:  Solving for Ux, Initial residual = 0.00135446, Final residual = 0.000134406, No Iterations 2
smoothSolver:  Solving for Uy, Initial residual = 0.00294093, Final residual = 0.000277193, No Iterations 2
[...]
    Cl(r) = 0.349513

Time = 480s

smoothSolver:  Solving for Ux, Initial residual = 1.83603e-05, Final residual = 1.60462e-06, No Iterations 2
smoothSolver:  Solving for Uy, Initial residual = 5.23393e-05, Final residual = 4.77677e-06, No Iterations 2
smoothSolver:  Solving for Uz, Initial residual = 3.07801e-05, Final residual = 2.70152e-06, No Iterations 2
GAMG:  Solving for p, Initial residual = 0.000348116, Final residual = 1.39897e-05, No Iterations 2
time step continuity errors : sum local = 3.62159e-05, global = 2.49855e-07, cumulative = 0.0171009
smoothSolver:  Solving for nuTilda, Initial residual = 3.49924e-06, Final residual = 2.69929e-07, No Iterations 2
ExecutionTime = 795.663 s  ClockTime = 798 s

forceCoeffs forces write:
    Cm    = 0.166403
    Cd    = 1.31379
    Cl    = 1.03161
    Cl(f) = 0.682208
    Cl(r) = 0.349401

Time = 481s

smoothSolver:  Solving for Ux, Initial residual = 1.82818e-05, Final residual = 1.59835e-06, No Iterations 2
smoothSolver:  Solving for Uy, Initial residual = 5.17464e-05, Final residual = 4.72825e-06, No Iterations 2
smoothSolver:  Solving for Uz, Initial residual = 3.02426e-05, Final residual = 2.65771e-06, No Iterations 2
GAMG:  Solving for p, Initial residual = 0.000343676, Final residual = 1.30555e-05, No Iterations 2
time step continuity errors : sum local = 3.37974e-05, global = 3.07683e-08, cumulative = 0.017101
smoothSolver:  Solving for nuTilda, Initial residual = 3.50423e-06, Final residual = 2.70912e-07, No Iterations 2
ExecutionTime = 797.203 s  ClockTime = 799 s

forceCoeffs forces write:
    Cm    = 0.166256
    Cd    = 1.31379
    Cl    = 1.03109
    Cl(f) = 0.6818
    Cl(r) = 0.349287

Time = 482s

smoothSolver:  Solving for Ux, Initial residual = 1.81533e-05, Final residual = 1.58326e-06, No Iterations 2
smoothSolver:  Solving for Uy, Initial residual = 5.1011e-05, Final residual = 4.64609e-06, No Iterations 2
smoothSolver:  Solving for Uz, Initial residual = 2.95438e-05, Final residual = 2.59958e-06, No Iterations 2
GAMG:  Solving for p, Initial residual = 0.000340274, Final residual = 1.248e-05, No Iterations 2
time step continuity errors : sum local = 3.23077e-05, global = -1.9411e-07, cumulative = 0.0171008
smoothSolver:  Solving for nuTilda, Initial residual = 3.51206e-06, Final residual = 2.71919e-07, No Iterations 2
ExecutionTime = 798.851 s  ClockTime = 801 s

forceCoeffs forces write:
    Cm    = 0.166041
    Cd    = 1.31379
    Cl    = 1.03043
    Cl(f) = 0.681258
    Cl(r) = 0.349175

Time = 483s

smoothSolver:  Solving for Ux, Initial residual = 1.79769e-05, Final residual = 1.56504e-06, No Iterations 2
smoothSolver:  Solving for Uy, Initial residual = 4.99555e-05, Final residual = 4.55386e-06, No Iterations 2
smoothSolver:  Solving for Uz, Initial residual = 2.87479e-05, Final residual = 2.52397e-06, No Iterations 2
GAMG:  Solving for p, Initial residual = 0.000338906, Final residual = 1.2575e-05, No Iterations 2
time step continuity errors : sum local = 3.25539e-05, global = -3.94886e-07, cumulative = 0.0171004
smoothSolver:  Solving for nuTilda, Initial residual = 3.51212e-06, Final residual = 2.71713e-07, No Iterations 2
ExecutionTime = 800.681 s  ClockTime = 803 s

forceCoeffs forces write:
    Cm    = 0.165764
    Cd    = 1.3138
    Cl    = 1.02967
    Cl(f) = 0.680597
    Cl(r) = 0.349068

Time = 484s

smoothSolver:  Solving for Ux, Initial residual = 1.77986e-05, Final residual = 1.55594e-06, No Iterations 2
smoothSolver:  Solving for Uy, Initial residual = 4.89058e-05, Final residual = 4.43442e-06, No Iterations 2
smoothSolver:  Solving for Uz, Initial residual = 2.79828e-05, Final residual = 2.43376e-06, No Iterations 2
GAMG:  Solving for p, Initial residual = 0.000337693, Final residual = 1.30512e-05, No Iterations 2
time step continuity errors : sum local = 3.37871e-05, global = -3.93738e-07, cumulative = 0.0171
smoothSolver:  Solving for nuTilda, Initial residual = 3.50685e-06, Final residual = 2.69754e-07, No Iterations 2
ExecutionTime = 802.709 s  ClockTime = 805 s

forceCoeffs forces write:
    Cm    = 0.165434
    Cd    = 1.3138
    Cl    = 1.02881
    Cl(f) = 0.67984
    Cl(r) = 0.348973

Time = 485s

smoothSolver:  Solving for Ux, Initial residual = 1.7644e-05, Final residual = 1.54109e-06, No Iterations 2
smoothSolver:  Solving for Uy, Initial residual = 4.80548e-05, Final residual = 4.30922e-06, No Iterations 2
smoothSolver:  Solving for Uz, Initial residual = 2.73909e-05, Final residual = 2.35353e-06, No Iterations 2
GAMG:  Solving for p, Initial residual = 0.000338936, Final residual = 1.35851e-05, No Iterations 2
time step continuity errors : sum local = 3.51697e-05, global = -3.98213e-07, cumulative = 0.0170996
smoothSolver:  Solving for nuTilda, Initial residual = 3.49817e-06, Final residual = 2.66422e-07, No Iterations 2
ExecutionTime = 804.908 s  ClockTime = 807 s

forceCoeffs forces write:
    Cm    = 0.165061
    Cd    = 1.3138
    Cl    = 1.02791
    Cl(f) = 0.679018
    Cl(r) = 0.348895

Time = 486s

smoothSolver:  Solving for Ux, Initial residual = 1.75131e-05, Final residual = 1.52269e-06, No Iterations 2
smoothSolver:  Solving for Uy, Initial residual = 4.75516e-05, Final residual = 4.24405e-06, No Iterations 2
smoothSolver:  Solving for Uz, Initial residual = 2.69888e-05, Final residual = 2.3018e-06, No Iterations 2
GAMG:  Solving for p, Initial residual = 0.000340855, Final residual = 1.39968e-05, No Iterations 2
time step continuity errors : sum local = 3.62364e-05, global = -3.1837e-07, cumulative = 0.0170993
smoothSolver:  Solving for nuTilda, Initial residual = 3.493e-06, Final residual = 2.6497e-07, No Iterations 2
ExecutionTime = 806.617 s  ClockTime = 809 s

forceCoeffs forces write:
    Cm    = 0.164666
    Cd    = 1.3138
    Cl    = 1.02702
    Cl(f) = 0.678173
    Cl(r) = 0.348842

Time = 487s

smoothSolver:  Solving for Ux, Initial residual = 1.75084e-05, Final residual = 1.51155e-06, No Iterations 2
smoothSolver:  Solving for Uy, Initial residual = 4.78412e-05, Final residual = 4.25337e-06, No Iterations 2
smoothSolver:  Solving for Uz, Initial residual = 2.70557e-05, Final residual = 2.30024e-06, No Iterations 2
GAMG:  Solving for p, Initial residual = 0.000341973, Final residual = 1.42868e-05, No Iterations 2
time step continuity errors : sum local = 3.69878e-05, global = -1.76002e-07, cumulative = 0.0170991
smoothSolver:  Solving for nuTilda, Initial residual = 3.4822e-06, Final residual = 2.65502e-07, No Iterations 2
ExecutionTime = 808.233 s  ClockTime = 810 s

forceCoeffs forces write:
    Cm    = 0.164273
    Cd    = 1.31379
    Cl    = 1.02618
    Cl(f) = 0.677363
    Cl(r) = 0.348817

Time = 488s

smoothSolver:  Solving for Ux, Initial residual = 1.76647e-05, Final residual = 1.5258e-06, No Iterations 2
smoothSolver:  Solving for Uy, Initial residual = 4.87006e-05, Final residual = 4.33436e-06, No Iterations 2
smoothSolver:  Solving for Uz, Initial residual = 2.7758e-05, Final residual = 2.36826e-06, No Iterations 2
GAMG:  Solving for p, Initial residual = 0.000343885, Final residual = 1.44683e-05, No Iterations 2
time step continuity errors : sum local = 3.74585e-05, global = -7.43933e-08, cumulative = 0.017099
smoothSolver:  Solving for nuTilda, Initial residual = 3.48844e-06, Final residual = 2.66616e-07, No Iterations 2
ExecutionTime = 809.759 s  ClockTime = 812 s

forceCoeffs forces write:
    Cm    = 0.163908
    Cd    = 1.31379
    Cl    = 1.02546
    Cl(f) = 0.676639
    Cl(r) = 0.348822

Time = 489s

smoothSolver:  Solving for Ux, Initial residual = 1.79092e-05, Final residual = 1.54282e-06, No Iterations 2
smoothSolver:  Solving for Uy, Initial residual = 4.9721e-05, Final residual = 4.45169e-06, No Iterations 2
smoothSolver:  Solving for Uz, Initial residual = 2.87009e-05, Final residual = 2.47103e-06, No Iterations 2
GAMG:  Solving for p, Initial residual = 0.000348377, Final residual = 1.45307e-05, No Iterations 2
time step continuity errors : sum local = 3.76208e-05, global = 1.05023e-07, cumulative = 0.0170991
smoothSolver:  Solving for nuTilda, Initial residual = 3.50394e-06, Final residual = 2.68162e-07, No Iterations 2
ExecutionTime = 811.382 s  ClockTime = 814 s

forceCoeffs forces write:
    Cm    = 0.163592
    Cd    = 1.31379
    Cl    = 1.0249
    Cl(f) = 0.676041
    Cl(r) = 0.348857

Time = 490s

smoothSolver:  Solving for Ux, Initial residual = 1.81612e-05, Final residual = 1.56507e-06, No Iterations 2
smoothSolver:  Solving for Uy, Initial residual = 5.08224e-05, Final residual = 4.57203e-06, No Iterations 2
smoothSolver:  Solving for Uz, Initial residual = 2.95763e-05, Final residual = 2.56817e-06, No Iterations 2
GAMG:  Solving for p, Initial residual = 0.000353063, Final residual = 1.45113e-05, No Iterations 2
time step continuity errors : sum local = 3.75713e-05, global = 2.62495e-07, cumulative = 0.0170994
smoothSolver:  Solving for nuTilda, Initial residual = 3.51928e-06, Final residual = 2.68763e-07, No Iterations 2
ExecutionTime = 813.132 s  ClockTime = 815 s

forceCoeffs forces write:
    Cm    = 0.163338
    Cd    = 1.31379
    Cl    = 1.02451
    Cl(f) = 0.67559
    Cl(r) = 0.348915

Time = 491s

smoothSolver:  Solving for Ux, Initial residual = 1.83376e-05, Final residual = 1.59031e-06, No Iterations 2
smoothSolver:  Solving for Uy, Initial residual = 5.18061e-05, Final residual = 4.6538e-06, No Iterations 2
smoothSolver:  Solving for Uz, Initial residual = 3.0342e-05, Final residual = 2.6481e-06, No Iterations 2
GAMG:  Solving for p, Initial residual = 0.000356135, Final residual = 1.45015e-05, No Iterations 2
time step continuity errors : sum local = 3.75466e-05, global = 3.76039e-07, cumulative = 0.0170998
smoothSolver:  Solving for nuTilda, Initial residual = 3.53258e-06, Final residual = 2.69737e-07, No Iterations 2
ExecutionTime = 814.798 s  ClockTime = 817 s

forceCoeffs forces write:
    Cm    = 0.163153
    Cd    = 1.3138
    Cl    = 1.02429
    Cl(f) = 0.675298
    Cl(r) = 0.348992

Time = 492s

smoothSolver:  Solving for Ux, Initial residual = 1.85057e-05, Final residual = 1.60654e-06, No Iterations 2
smoothSolver:  Solving for Uy, Initial residual = 5.26081e-05, Final residual = 4.72599e-06, No Iterations 2
smoothSolver:  Solving for Uz, Initial residual = 3.0913e-05, Final residual = 2.70381e-06, No Iterations 2
GAMG:  Solving for p, Initial residual = 0.000357494, Final residual = 1.45374e-05, No Iterations 2
time step continuity errors : sum local = 3.76401e-05, global = 4.29622e-07, cumulative = 0.0171002
smoothSolver:  Solving for nuTilda, Initial residual = 3.54082e-06, Final residual = 2.70955e-07, No Iterations 2
ExecutionTime = 816.365 s  ClockTime = 819 s

forceCoeffs forces write:
    Cm    = 0.163041
    Cd    = 1.31382
    Cl    = 1.02424
    Cl(f) = 0.675162
    Cl(r) = 0.34908

Time = 493s

smoothSolver:  Solving for Ux, Initial residual = 1.86371e-05, Final residual = 1.62189e-06, No Iterations 2
smoothSolver:  Solving for Uy, Initial residual = 5.3091e-05, Final residual = 4.77946e-06, No Iterations 2
smoothSolver:  Solving for Uz, Initial residual = 3.11942e-05, Final residual = 2.72906e-06, No Iterations 2
GAMG:  Solving for p, Initial residual = 0.000357561, Final residual = 1.46062e-05, No Iterations 2
time step continuity errors : sum local = 3.78188e-05, global = 4.10104e-07, cumulative = 0.0171006
smoothSolver:  Solving for nuTilda, Initial residual = 3.54532e-06, Final residual = 2.72705e-07, No Iterations 2
ExecutionTime = 817.923 s  ClockTime = 820 s

forceCoeffs forces write:
    Cm    = 0.163002
    Cd    = 1.31384
    Cl    = 1.02436
    Cl(f) = 0.675179
    Cl(r) = 0.349176

Time = 494s

smoothSolver:  Solving for Ux, Initial residual = 1.87235e-05, Final residual = 1.62406e-06, No Iterations 2
smoothSolver:  Solving for Uy, Initial residual = 5.32677e-05, Final residual = 4.81561e-06, No Iterations 2
smoothSolver:  Solving for Uz, Initial residual = 3.11581e-05, Final residual = 2.73241e-06, No Iterations 2
GAMG:  Solving for p, Initial residual = 0.000357254, Final residual = 1.47335e-05, No Iterations 2
time step continuity errors : sum local = 3.81489e-05, global = 3.19631e-07, cumulative = 0.0171009
smoothSolver:  Solving for nuTilda, Initial residual = 3.5485e-06, Final residual = 2.74814e-07, No Iterations 2
ExecutionTime = 819.536 s  ClockTime = 822 s

forceCoeffs forces write:
    Cm    = 0.163033
    Cd    = 1.31386
    Cl    = 1.02462
    Cl(f) = 0.675342
    Cl(r) = 0.349277

Time = 495s

smoothSolver:  Solving for Ux, Initial residual = 1.87229e-05, Final residual = 1.62331e-06, No Iterations 2
smoothSolver:  Solving for Uy, Initial residual = 5.32106e-05, Final residual = 4.82378e-06, No Iterations 2
smoothSolver:  Solving for Uz, Initial residual = 3.0911e-05, Final residual = 2.72045e-06, No Iterations 2
GAMG:  Solving for p, Initial residual = 0.000356368, Final residual = 1.47726e-05, No Iterations 2
time step continuity errors : sum local = 3.82505e-05, global = 1.71588e-07, cumulative = 0.0171011
smoothSolver:  Solving for nuTilda, Initial residual = 3.553e-06, Final residual = 2.75843e-07, No Iterations 2
ExecutionTime = 821.086 s  ClockTime = 823 s

forceCoeffs forces write:
    Cm    = 0.163132
    Cd    = 1.31389
    Cl    = 1.02502
    Cl(f) = 0.675644
    Cl(r) = 0.34938

Time = 496s

smoothSolver:  Solving for Ux, Initial residual = 1.86663e-05, Final residual = 1.62117e-06, No Iterations 2
smoothSolver:  Solving for Uy, Initial residual = 5.27115e-05, Final residual = 4.78827e-06, No Iterations 2
smoothSolver:  Solving for Uz, Initial residual = 3.05544e-05, Final residual = 2.68332e-06, No Iterations 2
GAMG:  Solving for p, Initial residual = 0.00035363, Final residual = 1.46758e-05, No Iterations 2
time step continuity errors : sum local = 3.80001e-05, global = -1.15587e-08, cumulative = 0.0171011
smoothSolver:  Solving for nuTilda, Initial residual = 3.56294e-06, Final residual = 2.76303e-07, No Iterations 2
ExecutionTime = 822.701 s  ClockTime = 825 s

forceCoeffs forces write:
    Cm    = 0.163295
    Cd    = 1.31392
    Cl    = 1.02556
    Cl(f) = 0.676075
    Cl(r) = 0.349486

Time = 497s

smoothSolver:  Solving for Ux, Initial residual = 1.85361e-05, Final residual = 1.60888e-06, No Iterations 2
smoothSolver:  Solving for Uy, Initial residual = 5.20113e-05, Final residual = 4.71588e-06, No Iterations 2
smoothSolver:  Solving for Uz, Initial residual = 3.00307e-05, Final residual = 2.62942e-06, No Iterations 2
GAMG:  Solving for p, Initial residual = 0.000352555, Final residual = 1.43879e-05, No Iterations 2
time step continuity errors : sum local = 3.72546e-05, global = -2.03592e-07, cumulative = 0.0171009
smoothSolver:  Solving for nuTilda, Initial residual = 3.57127e-06, Final residual = 2.76865e-07, No Iterations 2
ExecutionTime = 824.353 s  ClockTime = 827 s

forceCoeffs forces write:
    Cm    = 0.163517
    Cd    = 1.31394
    Cl    = 1.02622
    Cl(f) = 0.676629
    Cl(r) = 0.349594

Time = 498s

smoothSolver:  Solving for Ux, Initial residual = 1.83675e-05, Final residual = 1.58846e-06, No Iterations 2
smoothSolver:  Solving for Uy, Initial residual = 5.12219e-05, Final residual = 4.62789e-06, No Iterations 2
smoothSolver:  Solving for Uz, Initial residual = 2.93105e-05, Final residual = 2.55927e-06, No Iterations 2
GAMG:  Solving for p, Initial residual = 0.000350827, Final residual = 1.40523e-05, No Iterations 2
time step continuity errors : sum local = 3.63856e-05, global = -3.71535e-07, cumulative = 0.0171005
smoothSolver:  Solving for nuTilda, Initial residual = 3.5818e-06, Final residual = 2.77129e-07, No Iterations 2
ExecutionTime = 825.868 s  ClockTime = 828 s

forceCoeffs forces write:
    Cm    = 0.163794
    Cd    = 1.31396
    Cl    = 1.02699
    Cl(f) = 0.67729
    Cl(r) = 0.349703

Time = 499s

smoothSolver:  Solving for Ux, Initial residual = 1.81836e-05, Final residual = 1.57013e-06, No Iterations 2
smoothSolver:  Solving for Uy, Initial residual = 5.02268e-05, Final residual = 4.53215e-06, No Iterations 2
smoothSolver:  Solving for Uz, Initial residual = 2.86376e-05, Final residual = 2.48061e-06, No Iterations 2
GAMG:  Solving for p, Initial residual = 0.000349201, Final residual = 1.37944e-05, No Iterations 2
time step continuity errors : sum local = 3.57175e-05, global = -4.82559e-07, cumulative = 0.0171
smoothSolver:  Solving for nuTilda, Initial residual = 3.58199e-06, Final residual = 2.76401e-07, No Iterations 2
ExecutionTime = 827.41 s  ClockTime = 830 s

forceCoeffs forces write:
    Cm    = 0.164113
    Cd    = 1.31398
    Cl    = 1.02785
    Cl(f) = 0.678035
    Cl(r) = 0.34981

Time = 500s

smoothSolver:  Solving for Ux, Initial residual = 1.80325e-05, Final residual = 1.55247e-06, No Iterations 2
smoothSolver:  Solving for Uy, Initial residual = 4.93105e-05, Final residual = 4.4206e-06, No Iterations 2
smoothSolver:  Solving for Uz, Initial residual = 2.81701e-05, Final residual = 2.40925e-06, No Iterations 2
GAMG:  Solving for p, Initial residual = 0.000347211, Final residual = 1.36582e-05, No Iterations 2
time step continuity errors : sum local = 3.53643e-05, global = -5.10551e-07, cumulative = 0.0170995
smoothSolver:  Solving for nuTilda, Initial residual = 3.57335e-06, Final residual = 2.74034e-07, No Iterations 2
ExecutionTime = 829.295 s  ClockTime = 832 s

forceCoeffs forces write:
    Cm    = 0.16446
    Cd    = 1.31398
    Cl    = 1.02874
    Cl(f) = 0.678828
    Cl(r) = 0.349909

Time = 501s

smoothSolver:  Solving for Ux, Initial residual = 1.78758e-05, Final residual = 1.54101e-06, No Iterations 2
smoothSolver:  Solving for Uy, Initial residual = 4.88e-05, Final residual = 4.33785e-06, No Iterations 2
smoothSolver:  Solving for Uz, Initial residual = 2.80449e-05, Final residual = 2.37827e-06, No Iterations 2
GAMG:  Solving for p, Initial residual = 0.000346986, Final residual = 1.37447e-05, No Iterations 2
time step continuity errors : sum local = 3.55877e-05, global = -4.4176e-07, cumulative = 0.0170991
smoothSolver:  Solving for nuTilda, Initial residual = 3.56452e-06, Final residual = 2.72918e-07, No Iterations 2
ExecutionTime = 831.212 s  ClockTime = 834 s

forceCoeffs forces write:
    Cm    = 0.164815
    Cd    = 1.31397
    Cl    = 1.02961
    Cl(f) = 0.679622
    Cl(r) = 0.349993

Time = 502s

smoothSolver:  Solving for Ux, Initial residual = 1.78032e-05, Final residual = 1.53562e-06, No Iterations 2
smoothSolver:  Solving for Uy, Initial residual = 4.88735e-05, Final residual = 4.32919e-06, No Iterations 2
smoothSolver:  Solving for Uz, Initial residual = 2.827e-05, Final residual = 2.39258e-06, No Iterations 2
GAMG:  Solving for p, Initial residual = 0.000346292, Final residual = 1.39032e-05, No Iterations 2
time step continuity errors : sum local = 3.59973e-05, global = -2.8166e-07, cumulative = 0.0170988
smoothSolver:  Solving for nuTilda, Initial residual = 3.56024e-06, Final residual = 2.72558e-07, No Iterations 2
ExecutionTime = 832.853 s  ClockTime = 835 s

forceCoeffs forces write:
    Cm    = 0.165161
    Cd    = 1.31395
    Cl    = 1.03043
    Cl(f) = 0.680376
    Cl(r) = 0.350055

Time = 503s

smoothSolver:  Solving for Ux, Initial residual = 1.78548e-05, Final residual = 1.53785e-06, No Iterations 2
smoothSolver:  Solving for Uy, Initial residual = 4.95541e-05, Final residual = 4.38313e-06, No Iterations 2
smoothSolver:  Solving for Uz, Initial residual = 2.88637e-05, Final residual = 2.45188e-06, No Iterations 2
GAMG:  Solving for p, Initial residual = 0.000345822, Final residual = 1.41469e-05, No Iterations 2
time step continuity errors : sum local = 3.66275e-05, global = -6.80291e-08, cumulative = 0.0170987
smoothSolver:  Solving for nuTilda, Initial residual = 3.56092e-06, Final residual = 2.73274e-07, No Iterations 2
ExecutionTime = 834.51 s  ClockTime = 837 s

streamlines streamlines write:
    Seeded 20 particles
    Sampled 8447 locations
forceCoeffs forces write:
    Cm    = 0.165482
    Cd    = 1.31393
    Cl    = 1.03114
    Cl(f) = 0.681052
    Cl(r) = 0.350088

End

